
  EPA STORM WATER MANAGEMENT MODEL - VERSION 5.2 (Build 5.2.4)
  PYSWMM TOOLKIT API - VERSION v1.0 (2026-07-20)
  ------------------------------------------------------------

  Scenario Run :  BASE 
  WARNING 08: elevation drop exceeds length for Conduit 1570C
  
  ****************
  Analysis Options
  ****************
  Flow Units ............... LPS
  Process Models:
    Rainfall/Runoff ........ NO
    RDII ................... NO
    Snowmelt ............... NO
    Groundwater ............ NO
    Flow Routing ........... YES
    Ponding Allowed ........ NO
    Water Quality .......... NO
  Flow Routing Method ...... DYNWAVE
  Surcharge Method ......... EXTRAN
  Starting Date ............ 01/01/1988 00:00:00
  Ending Date .............. 01/01/1988 06:00:00
  Antecedent Dry Days ...... 0.0
  Report Time Step ......... 00:00:10
  Routing Time Step ........ 1.00 sec
  Variable Time Step ....... YES
  Maximum Trials ........... 8
  Number of Threads ........ 1
  Head Tolerance ........... 0.000010 m
  
  
  *********************
  Control Actions Taken
  *********************

  
  **************************        Volume        Volume
  Flow Routing Continuity        hectare-m      10^6 ltr
  **************************     ---------     ---------
  Dry Weather Inflow .......         0.045         0.454
  Wet Weather Inflow .......         0.000         0.000
  Groundwater Inflow .......         0.000         0.000
  RDII Inflow ..............         0.000         0.000
  External Inflow ..........         1.376        13.765
  External Outflow .........         1.324        13.240
  Flooding Loss ............         0.000         0.001
  Evaporation Loss .........         0.000         0.001
  Exfiltration Loss ........         0.000         0.000
  Initial Stored Volume ....         0.027         0.273
  Final Stored Volume ......         0.101         1.007
  Continuity Error (%) .....         1.682
  
  
  *************************
  Highest Continuity Errors
  *************************
  Node 10309A (12.49%)
  Node WETWELL (9.55%)
  
  
  ***************************
  Time-Step Critical Elements
  ***************************
  None
  
  
  ********************************
  Highest Flow Instability Indexes
  ********************************
  Link OR1@82309D-82308D (57)
  
  
  *********************************
  Most Frequent Nonconverging Nodes
  *********************************
  Node 10208 (72.09%)
  Node 10208A (72.09%)
  Node 10208B (72.09%)
  Node 10208C (72.09%)
  Node 10208D (72.09%)
  
  
  *************************
  Routing Time Step Summary
  *************************
  Minimum Time Step           :     0.50 sec
  Average Time Step           :     1.00 sec
  Maximum Time Step           :     1.00 sec
  % of Time in Steady State   :     0.00
  Average Iterations per Step :     7.26
  % of Steps Not Converging   :    72.09
  Time Step Frequencies       :
      1.000 -  0.871 sec      :   100.00 %
      0.871 -  0.758 sec      :     0.00 %
      0.758 -  0.660 sec      :     0.00 %
      0.660 -  0.574 sec      :     0.00 %
      0.574 -  0.500 sec      :     0.00 %
  
  
  ******************
  Node Depth Summary
  ******************
  
  ---------------------------------------------------------------------------------
                                 Average  Maximum  Maximum  Time of Max    Reported
                                   Depth    Depth      HGL   Occurrence   Max Depth
  Node                 Type       Meters   Meters   Meters  days hr:min      Meters
  ---------------------------------------------------------------------------------
  10309                JUNCTION     0.17     0.24     1.84     0  01:57        0.24
  10309A               JUNCTION     0.37     0.43     2.03     0  00:47        0.43
  10309B               JUNCTION     0.14     0.23     1.83     0  02:27        0.23
  10309C               JUNCTION     0.17     0.23     1.83     0  03:00        0.23
  10309D               JUNCTION     0.14     0.23     1.83     0  03:00        0.23
  10309E               JUNCTION     0.29     0.33     1.93     0  03:08        0.33
  15009                JUNCTION     0.06     0.11    11.61     0  00:38        0.11
  15009A               JUNCTION     0.06     0.11    11.61     0  00:38        0.11
  15009B               JUNCTION     0.06     0.11    11.61     0  00:39        0.11
  15009C               JUNCTION     1.84     3.32    15.32     0  02:31        3.32
  15009D               JUNCTION     0.06     0.11    11.61     0  00:39        0.11
  15009E               JUNCTION     0.11     0.16    11.66     0  02:00        0.16
  16009                JUNCTION     0.13     0.18     2.18     0  00:45        0.18
  16009A               JUNCTION     0.13     0.21     2.21     0  00:23        0.21
  16009B               JUNCTION     0.10     0.18     2.18     0  00:47        0.18
  16009C               JUNCTION     0.13     0.18     2.18     0  03:00        0.18
  16009D               JUNCTION     0.11     0.18     2.18     0  03:00        0.18
  16009E               JUNCTION     0.22     0.25     2.25     0  03:05        0.25
  16109                JUNCTION     0.11     0.15     2.95     0  02:16        0.15
  16109A               JUNCTION     0.10     0.15     2.95     0  02:20        0.15
  16109B               JUNCTION     0.08     0.14     2.94     0  02:21        0.14
  16109C               JUNCTION     0.08     0.17     2.97     0  03:00        0.17
  16109D               JUNCTION     0.08     0.14     2.94     0  02:59        0.14
  16109E               JUNCTION     0.23     0.26     3.06     0  03:21        0.26
  80408                JUNCTION     0.09     0.11    24.71     0  00:29        0.11
  80408A               JUNCTION     0.08     0.11    24.71     0  00:30        0.11
  80408B               JUNCTION     0.05     0.10    24.70     0  00:31        0.10
  80408C               JUNCTION     0.05     0.10    24.70     0  00:31        0.10
  80408D               JUNCTION     0.05     0.10    24.70     0  00:31        0.10
  80408E               JUNCTION     5.37    23.40    48.00     0  02:58       23.40
  80608                JUNCTION     0.10     0.13    18.43     0  01:21        0.13
  80608A               JUNCTION     0.09     0.13    18.43     0  01:19        0.13
  80608B               JUNCTION     0.07     0.12    18.42     0  01:33        0.12
  80608C               JUNCTION     0.07     0.12    18.42     0  01:33        0.12
  80608D               JUNCTION     0.05     0.10    18.40     0  00:55        0.10
  80608E               JUNCTION     4.95    16.78    35.08     0  03:01       16.78
  81009                JUNCTION     0.06     0.11    28.31     0  00:17        0.11
  81009A               JUNCTION     0.06     0.11    28.31     0  00:17        0.11
  81009B               JUNCTION     0.06     0.11    28.31     0  00:17        0.11
  81009C               JUNCTION     0.06     0.11    28.31     0  01:11        0.11
  81009D               JUNCTION     0.06     0.11    28.31     0  00:18        0.11
  81009E               JUNCTION     0.06     0.11    28.31     0  00:17        0.11
  81309                JUNCTION     0.07     0.12    17.62     0  00:25        0.12
  81309A               JUNCTION     0.07     0.12    17.62     0  00:25        0.12
  81309B               JUNCTION     0.07     0.12    17.62     0  00:25        0.12
  81309C               JUNCTION     0.07     0.13    17.63     0  00:21        0.13
  81309D               JUNCTION     0.07     0.12    17.62     0  00:25        0.12
  81309E               JUNCTION     0.07     0.12    17.62     0  00:25        0.12
  82308D               JUNCTION     0.14     0.25    12.55     0  02:59        0.25
  82309                JUNCTION     0.19     0.27    12.57     0  02:14        0.27
  82309A               JUNCTION     0.18     0.27    12.57     0  02:19        0.27
  82309B               JUNCTION     0.14     0.25    12.55     0  02:19        0.25
  82309C               JUNCTION     0.14     0.30    12.60     0  03:00        0.30
  10208                OUTFALL      0.15     0.22     0.12     0  01:57        0.22
  10208A               OUTFALL      2.10     2.10     2.00     0  00:00        2.10
  10208B               OUTFALL      0.12     0.21     0.11     0  02:27        0.21
  10208C               OUTFALL      0.15     0.21     0.11     0  03:00        0.21
  10208D               OUTFALL      0.13     0.21     0.11     0  03:00        0.21
  10208E               OUTFALL      0.27     0.30     0.20     0  03:07        0.30
  82309D               STORAGE      0.14     0.25    12.55     0  03:00        0.25
  WETWELL              STORAGE      5.40     8.72    21.02     0  03:12        8.72
  
  
  *******************
  Node Inflow Summary
  *******************
  
  -------------------------------------------------------------------------------------------------
                                  Maximum  Maximum                  Lateral       Total        Flow
                                  Lateral    Total  Time of Max      Inflow      Inflow     Balance
                                   Inflow   Inflow   Occurrence      Volume      Volume       Error
  Node                 Type           LPS      LPS  days hr:min    10^6 ltr    10^6 ltr     Percent
  -------------------------------------------------------------------------------------------------
  10309                JUNCTION      0.00   145.03     0  00:45           0        1.75       0.560
  10309A               JUNCTION      0.00   161.25     0  00:28           0        1.68      14.275
  10309B               JUNCTION      0.00   135.01     0  00:47           0        1.46       0.050
  10309C               JUNCTION      0.00   135.00     0  03:00           0        1.46       0.692
  10309D               JUNCTION      0.00   135.00     0  03:00           0        1.46       0.075
  10309E               JUNCTION      0.00   341.71     0  03:05           0        5.72       0.979
  15009                JUNCTION      0.00    50.56     0  00:29           0       0.541       0.033
  15009A               JUNCTION      0.00    50.58     0  00:29           0       0.541       0.082
  15009B               JUNCTION      0.00    50.54     0  00:29           0       0.541       0.060
  15009C               JUNCTION      0.00    53.09     0  00:22           0       0.542      -0.388
  15009D               JUNCTION      0.00    50.44     0  00:29           0       0.541      -0.085
  15009E               JUNCTION      0.00   101.57     0  02:46           0        1.11       0.262
  16009                JUNCTION      0.00   145.03     0  00:43           0        1.76       0.361
  16009A               JUNCTION      0.00   146.03     0  00:43           0        1.68       0.207
  16009B               JUNCTION      0.00   135.01     0  00:45           0        1.46       0.022
  16009C               JUNCTION      0.00   135.00     0  03:00           0        1.46       0.048
  16009D               JUNCTION      0.00   135.00     0  03:00           0        1.46       0.099
  16009E               JUNCTION      0.00   341.83     0  03:04           0        5.74       0.415
  16109                JUNCTION      0.00    95.00     0  02:15           0        1.22       0.000
  16109A               JUNCTION      0.00    96.00     0  02:20           0        1.15       0.000
  16109B               JUNCTION      0.00    85.00     0  02:20           0       0.919       0.000
  16109C               JUNCTION      0.00   113.00     0  03:00           0           1       0.000
  16109D               JUNCTION      0.00    85.00     0  02:59           0       0.916       0.000
  16109E               JUNCTION      0.00   248.46     0  03:13           0        4.67       0.000
  80408                JUNCTION     55.00    55.00     0  00:15       0.805       0.805       0.137
  80408A               JUNCTION     56.00    56.00     0  00:15       0.724       0.724       0.091
  80408B               JUNCTION     45.00    45.00     0  00:15       0.486       0.486      -0.052
  80408C               JUNCTION     45.00    45.00     0  00:15       0.486       0.486      -0.052
  80408D               JUNCTION     45.00    45.00     0  00:15       0.486       0.486      -0.033
  80408E               JUNCTION    499.93   499.93     0  03:00         5.4         5.4       0.209
  80608                JUNCTION      0.00    55.00     0  00:29           0       0.804       0.641
  80608A               JUNCTION      0.00    56.00     0  00:30           0       0.723       0.478
  80608B               JUNCTION      0.00    45.00     0  00:31           0       0.486       0.062
  80608C               JUNCTION      0.00    45.00     0  00:31           0       0.486       0.062
  80608D               JUNCTION      0.00    45.00     0  00:31           0       0.486      -0.087
  80608E               JUNCTION      0.00   499.89     0  01:30           0        5.39       0.447
  81009                JUNCTION     50.00    50.00     0  00:15        0.54        0.54      -0.180
  81009A               JUNCTION     50.00    50.00     0  00:15        0.54        0.54      -0.180
  81009B               JUNCTION     50.00    50.00     0  00:15        0.54        0.54      -0.180
  81009C               JUNCTION     50.00    50.00     0  00:15        0.54        0.54      -0.187
  81009D               JUNCTION     50.00    50.00     0  00:15        0.54        0.54      -0.180
  81009E               JUNCTION     50.00    50.00     0  00:15        0.54        0.54      -0.180
  81309                JUNCTION      0.00    50.14     0  00:18           0       0.541       0.073
  81309A               JUNCTION      0.00    50.14     0  00:18           0       0.541       0.073
  81309B               JUNCTION      0.00    50.17     0  00:18           0       0.541       0.075
  81309C               JUNCTION      0.00    50.00     0  01:11           0       0.541      -0.218
  81309D               JUNCTION      0.00    50.25     0  00:18           0       0.541       0.079
  81309E               JUNCTION      0.00    50.08     0  00:18           0       0.541      -0.050
  82308D               JUNCTION      0.00    18.40     0  00:32           0      0.0156       0.000
  82309                JUNCTION     40.00    95.00     0  01:21       0.432        1.23       0.600
  82309A               JUNCTION     40.00    96.00     0  01:20       0.432        1.15       0.395
  82309B               JUNCTION     40.00    85.00     0  01:33       0.432       0.918      -0.102
  82309C               JUNCTION     40.00   113.00     0  02:31       0.432           1      -0.102
  10208                OUTFALL       0.00   145.00     0  01:57           0        1.74       0.000
  10208A               OUTFALL       0.00   232.21     0  00:51           0        1.47       0.000
  10208B               OUTFALL       0.00   135.00     0  02:27           0        1.46       0.000
  10208C               OUTFALL       0.00   134.98     0  03:00           0        1.45       0.000
  10208D               OUTFALL       0.00   135.00     0  03:00           0        1.45       0.000
  10208E               OUTFALL       0.00   340.51     0  03:07           0        5.67       0.000
  82309D               STORAGE      40.00   100.53     0  00:32       0.432       0.934      -0.002
  WETWELL              STORAGE      40.00   539.91     0  01:30       0.432        5.79      10.562
  
  
  **********************
  Node Surcharge Summary
  **********************
  
  Surcharging occurs when water rises above the top of the highest conduit.
  ---------------------------------------------------------------------
                                               Max. Height   Min. Depth
                                   Hours       Above Crown    Below Rim
  Node                 Type      Surcharged         Meters       Meters
  ---------------------------------------------------------------------
  80408E               JUNCTION        2.78         23.000        0.000
  80608E               JUNCTION        4.16         16.384        9.916
  
  
  *********************
  Node Flooding Summary
  *********************
  
  Flooding refers to all water that overflows a node, whether it ponds or not.
  --------------------------------------------------------------------------
                                                             Total   Maximum
                                 Maximum   Time of Max       Flood    Ponded
                        Hours       Rate    Occurrence      Volume     Depth
  Node                 Flooded       LPS   days hr:min    10^6 ltr    Meters
  --------------------------------------------------------------------------
  80408E                  0.06     15.09      0  03:00       0.001     0.000
  
  
  **********************
  Storage Volume Summary
  **********************
  
  ------------------------------------------------------------------------------------------------
                         Average    Avg   Evap  Exfil     Maximum    Max    Time of Max    Maximum
                          Volume   Pcnt   Pcnt   Pcnt      Volume   Pcnt     Occurrence    Outflow
  Storage Unit           1000 m³   Full   Loss   Loss     1000 m³   Full    days hr:min        LPS
  ------------------------------------------------------------------------------------------------
  82309D                   0.014    0.3    0.0    0.0       0.025    0.6       0  03:00     100.26
  WETWELL                  0.005    8.3    0.0    0.0       0.009   13.4       0  03:12     298.46
  
  
  ***********************
  Outfall Loading Summary
  ***********************
  
  -----------------------------------------------------------
                         Flow       Avg       Max       Total
                         Freq      Flow      Flow      Volume
  Outfall Node           Pcnt       LPS       LPS    10^6 ltr
  -----------------------------------------------------------
  10208                 96.50     83.59    145.00       1.742
  10208A                87.91     77.38    232.21       1.469
  10208B                96.24     70.10    135.00       1.457
  10208C                97.15     69.17    134.98       1.451
  10208D                95.46     70.51    135.00       1.454
  10208E                97.00    270.39    340.51       5.665
  -----------------------------------------------------------
  System                95.04    641.14   1032.62      13.240
  
  
  ********************
  Link Flow Summary
  ********************
  
  -----------------------------------------------------------------------------
                                 Maximum  Time of Max   Maximum    Max/    Max/
                                  |Flow|   Occurrence   |Veloc|    Full    Full
  Link                 Type          LPS  days hr:min     m/sec    Flow   Depth
  -----------------------------------------------------------------------------
  1030                 CONDUIT    145.00     0  01:57      0.93    0.03    0.25
  1030A                CONDUIT    232.21     0  00:51      0.18    0.04    0.74
  1030B                CONDUIT    135.00     0  02:27      0.91    0.03    0.25
  1030C                CONDUIT    134.98     0  03:00      0.91    0.03    0.25
  1030D                CONDUIT    135.00     0  03:00      0.91    0.03    0.25
  1030E                CONDUIT    340.51     0  03:07      1.14    0.06    0.35
  1570                 CONDUIT     50.13     0  00:38      1.00    0.09    0.26
  1570A                CONDUIT     50.13     0  00:38      1.00    0.09    0.28
  1570B                CONDUIT     50.12     0  00:39      1.02    0.09    0.26
  1570C                CONDUIT     22.00     0  00:15      1.80    0.00    0.66
  1570D                CONDUIT     50.10     0  00:39      1.08    0.09    0.26
  1570E                CONDUIT    100.00     0  02:00      1.29    0.18    0.37
  1600                 CONDUIT     95.00     0  02:16      1.49    0.14    0.28
  1600A                CONDUIT     96.00     0  02:20      1.50    0.14    0.30
  1600B                CONDUIT     85.00     0  02:21      1.41    0.13    0.27
  1600C                CONDUIT    113.00     0  03:00      1.70    0.17    0.28
  1600D                CONDUIT     85.00     0  03:00      1.41    0.13    0.27
  1600E                CONDUIT    247.64     0  03:15      2.24    0.37    0.42
  1602                 CONDUIT     95.00     0  02:15      1.21    0.48    0.42
  1602A                CONDUIT     96.00     0  02:20      1.21    0.48    0.42
  1602B                CONDUIT     85.00     0  02:20      1.18    0.43    0.40
  1602C                CONDUIT    113.00     0  03:00      1.25    0.57    0.47
  1602D                CONDUIT     85.00     0  02:59      1.18    0.43    0.40
  1602E                CONDUIT    248.46     0  03:13      1.56    1.25    0.76
  1630                 CONDUIT    145.03     0  00:45      1.40    0.01    0.23
  1630A                CONDUIT    161.25     0  00:28      1.88    0.02    0.34
  1630B                CONDUIT    135.01     0  00:47      1.39    0.01    0.23
  1630C                CONDUIT    135.00     0  03:00      1.31    0.01    0.23
  1630D                CONDUIT    135.00     0  03:00      1.36    0.01    0.23
  1630E                CONDUIT    341.71     0  03:05      1.63    0.03    0.32
  8040                 CONDUIT     55.00     0  00:29      1.88    0.16    0.30
  8040A                CONDUIT     56.00     0  00:30      1.90    0.17    0.30
  8040B                CONDUIT     45.00     0  00:31      1.72    0.13    0.28
  8040C                CONDUIT     45.00     0  00:31      1.72    0.13    0.28
  8040D                CONDUIT     45.00     0  00:31      1.86    0.13    0.25
  8040E                CONDUIT    499.89     0  01:30      3.98    1.48    1.00
  8060                 CONDUIT     55.00     0  01:21      1.60    0.22    0.32
  8060A                CONDUIT     56.00     0  01:20      1.61    0.22    0.32
  8060B                CONDUIT     45.00     0  01:33      1.36    0.21    0.31
  8060C                CONDUIT     45.00     0  01:33      1.36    0.21    0.31
  8060D                CONDUIT     45.00     0  00:55      1.58    0.15    0.44
  8060E                CONDUIT    499.91     0  01:30      3.98    1.63    1.00
  8100                 CONDUIT     50.14     0  00:18      1.64    0.14    0.26
  8100A                CONDUIT     50.14     0  00:18      1.64    0.14    0.26
  8100B                CONDUIT     50.17     0  00:18      1.64    0.14    0.26
  8100C                CONDUIT     50.00     0  01:11      1.62    0.14    0.27
  8100D                CONDUIT     50.25     0  00:18      1.64    0.14    0.26
  8100E                CONDUIT     50.08     0  00:18      1.64    0.14    0.26
  8130                 CONDUIT     50.56     0  00:29      1.66    0.16    0.26
  8130A                CONDUIT     50.58     0  00:29      1.67    0.16    0.26
  8130B                CONDUIT     50.54     0  00:29      1.66    0.16    0.26
  8130C                CONDUIT     53.09     0  00:22      1.85    0.17    0.64
  8130D                CONDUIT     50.44     0  00:29      1.64    0.16    0.26
  8130E                CONDUIT     51.57     0  02:46      1.68    0.16    0.31
  PUMP1                PUMP        50.00     0  01:32              0.25
  OR1@82309D-82308D    ORIFICE     20.59     0  03:06                      0.13
  WEIR1@82309C-15009C  WEIR        28.00     0  02:31                      0.00
  OR1@82309B-15009B    DUMMY        0.00     0  00:00
  
  
  ***************************
  Flow Classification Summary
  ***************************
  
  -------------------------------------------------------------------------------------
                      Adjusted    ---------- Fraction of Time in Flow Class ---------- 
                       /Actual         Up    Down  Sub   Sup   Up    Down  Norm  Inlet 
  Conduit               Length    Dry  Dry   Dry   Crit  Crit  Crit  Crit  Ltd   Ctrl  
  -------------------------------------------------------------------------------------
  1030                    1.00   0.02  0.00  0.00  0.98  0.00  0.00  0.00  0.00  0.00
  1030A                   1.00   0.00  0.00  0.00  1.00  0.00  0.00  0.00  0.00  0.00
  1030B                   1.00   0.02  0.00  0.00  0.98  0.00  0.00  0.00  0.00  0.00
  1030C                   1.00   0.02  0.00  0.00  0.98  0.00  0.00  0.00  0.00  0.00
  1030D                   1.00   0.03  0.00  0.00  0.97  0.00  0.00  0.00  0.00  0.00
  1030E                   1.00   0.02  0.00  0.00  0.98  0.00  0.00  0.00  0.00  0.00
  1570                    1.00   0.01  0.00  0.00  0.99  0.00  0.00  0.00  0.98  0.00
  1570A                   1.00   0.01  0.00  0.00  0.99  0.00  0.00  0.00  0.98  0.00
  1570B                   1.00   0.01  0.00  0.00  0.52  0.47  0.00  0.00  0.97  0.00
  1570C                   9.83   0.01  0.00  0.00  0.94  0.05  0.00  0.00  0.03  0.00
  1570D                   1.00   0.01  0.00  0.00  0.49  0.51  0.00  0.00  0.95  0.00
  1570E                   1.00   0.01  0.00  0.00  0.85  0.15  0.00  0.00  0.98  0.00
  1600                    1.00   0.00  0.00  0.00  0.00  0.99  0.00  0.00  0.95  0.00
  1600A                   1.00   0.00  0.00  0.00  0.06  0.94  0.00  0.00  0.96  0.00
  1600B                   1.00   0.00  0.00  0.00  0.46  0.54  0.00  0.00  0.95  0.00
  1600C                   1.00   0.00  0.00  0.00  0.46  0.54  0.00  0.00  0.98  0.00
  1600D                   1.00   0.01  0.00  0.00  0.43  0.57  0.00  0.00  0.95  0.00
  1600E                   1.00   0.00  0.00  0.00  0.01  0.99  0.00  0.00  0.12  0.00
  1602                    1.00   0.00  0.00  0.00  0.95  0.05  0.00  0.00  0.00  0.00
  1602A                   1.00   0.00  0.00  0.00  0.95  0.05  0.00  0.00  0.00  0.00
  1602B                   1.00   0.00  0.00  0.00  0.94  0.06  0.00  0.00  0.00  0.00
  1602C                   1.00   0.00  0.00  0.00  0.94  0.06  0.00  0.00  0.00  0.00
  1602D                   1.00   0.00  0.00  0.00  0.92  0.08  0.00  0.00  0.00  0.00
  1602E                   1.00   0.00  0.00  0.00  0.97  0.03  0.00  0.00  0.00  0.00
  1630                    1.00   0.01  0.00  0.00  0.48  0.51  0.00  0.00  0.94  0.00
  1630A                   1.00   0.01  0.00  0.00  0.92  0.07  0.00  0.00  0.92  0.00
  1630B                   1.00   0.01  0.00  0.00  0.48  0.51  0.00  0.00  0.94  0.00
  1630C                   1.00   0.01  0.00  0.00  0.48  0.51  0.00  0.00  0.95  0.00
  1630D                   1.00   0.01  0.00  0.00  0.48  0.51  0.00  0.00  0.93  0.00
  1630E                   1.00   0.01  0.00  0.00  0.01  0.98  0.00  0.00  0.95  0.00
  8040                    1.00   0.00  0.00  0.00  0.00  1.00  0.00  0.00  0.97  0.00
  8040A                   1.00   0.00  0.00  0.00  0.00  1.00  0.00  0.00  0.97  0.00
  8040B                   1.00   0.00  0.00  0.00  0.46  0.54  0.00  0.00  0.97  0.00
  8040C                   1.00   0.00  0.00  0.00  0.46  0.54  0.00  0.00  0.97  0.00
  8040D                   1.00   0.00  0.00  0.00  0.46  0.54  0.00  0.00  0.96  0.00
  8040E                   1.00   0.00  0.00  0.00  0.67  0.33  0.00  0.00  0.34  0.00
  8060                    1.00   0.00  0.00  0.00  0.00  0.00  0.00  1.00  0.00  0.00
  8060A                   1.00   0.00  0.00  0.00  0.00  0.00  0.00  1.00  0.00  0.00
  8060B                   1.00   0.00  0.00  0.00  0.00  0.00  0.00  1.00  0.00  0.00
  8060C                   1.00   0.00  0.00  0.00  0.00  0.00  0.00  1.00  0.00  0.00
  8060D                   1.00   0.00  0.00  0.00  0.94  0.06  0.00  0.00  0.97  0.00
  8060E                   1.00   0.00  0.00  0.00  0.94  0.06  0.00  0.00  0.12  0.00
  8100                    1.00   0.00  0.00  0.00  0.46  0.54  0.00  0.00  0.95  0.00
  8100A                   1.00   0.00  0.00  0.00  0.46  0.54  0.00  0.00  0.95  0.00
  8100B                   1.00   0.00  0.00  0.00  0.46  0.54  0.00  0.00  0.95  0.00
  8100C                   1.00   0.00  0.00  0.00  0.46  0.54  0.00  0.00  0.95  0.00
  8100D                   1.00   0.00  0.00  0.00  0.46  0.54  0.00  0.00  0.95  0.00
  8100E                   1.00   0.00  0.00  0.00  0.46  0.54  0.00  0.00  0.95  0.00
  8130                    1.00   0.00  0.00  0.00  0.42  0.58  0.00  0.00  0.48  0.00
  8130A                   1.00   0.00  0.00  0.00  0.42  0.58  0.00  0.00  0.48  0.00
  8130B                   1.00   0.00  0.00  0.00  0.42  0.58  0.00  0.00  0.48  0.00
  8130C                   1.00   0.00  0.00  0.00  0.93  0.06  0.00  0.00  0.94  0.00
  8130D                   1.00   0.00  0.00  0.00  0.42  0.58  0.00  0.00  0.48  0.00
  8130E                   1.00   0.00  0.00  0.00  0.47  0.53  0.00  0.00  0.65  0.00
  
  
  *************************
  Conduit Surcharge Summary
  *************************
  
  ----------------------------------------------------------------------------
                                                           Hours        Hours 
                         --------- Hours Full --------   Above Full   Capacity
  Conduit                Both Ends  Upstream  Dnstream   Normal Flow   Limited
  ----------------------------------------------------------------------------
  1030A                       0.01      0.01      6.00      0.01         0.01
  1570C                       0.01      4.84      0.01      0.01         0.01
  1602E                       0.01      5.73      0.01      5.45         0.01
  8040E                       2.78      2.78      4.16      1.93         1.92
  8060E                       4.16      4.16      5.76      2.28         2.25
  8130C                       0.01      0.01      4.97      0.01         0.01
  
  
  ***************
  Pumping Summary
  ***************
  
  ---------------------------------------------------------------------------------------------------------
                                                  Min       Avg       Max     Total     Power    % Time Off
                        Percent   Number of      Flow      Flow      Flow    Volume     Usage    Pump Curve
  Pump                 Utilized   Start-Ups       LPS       LPS       LPS  10^6 ltr     Kw-hr    Low   High
  ---------------------------------------------------------------------------------------------------------
  PUMP1                   52.66           4      0.00     50.00     50.00     0.569     11.43    0.0  100.0
  

  Analysis begun on:  Mon Jul 20 17:24:37 2026
  Analysis ended on:  Mon Jul 20 17:24:38 2026
  Total elapsed time: 00:00:01