
  EPA STORM WATER MANAGEMENT MODEL - VERSION 5.2 (Build 5.2.4)
  PYSWMM TOOLKIT API - VERSION v1.0 (2026-07-19)
  ------------------------------------------------------------

  
  *************
  Element Count
  *************
  Number of rain gages ...... 4
  Number of subcatchments ... 0
  Number of nodes ........... 1151
  Number of links ........... 1167
  Number of pollutants ...... 0
  Number of land uses ....... 0
  
  
  ****************
  Raingage Summary
  ****************
                                                      Data       Recording
  Name                 Data Source                    Type       Interval 
  ------------------------------------------------------------------------
  Rain1                Rain1                          VOLUME       5 min.
  Rain2                Rain2                          VOLUME       5 min.
  Rain3                Rain3                          VOLUME       5 min.
  Rain4                Rain4                          VOLUME       5 min.
  
  
  ************
  Node Summary
  ************
                                           Invert      Max.    Ponded    External
  Name                 Type                 Elev.     Depth      Area    Inflow  
  -------------------------------------------------------------------------------
  FIT-1                JUNCTION             38.00     12.00       0.0
  FIT-10               JUNCTION             -0.75      6.63       0.0
  FIT-12               JUNCTION             40.10      9.90       0.0    Yes
  FIT-2                JUNCTION             39.21     12.81       0.0    Yes
  FIT-64               JUNCTION             84.00     16.00       0.0    Yes
  FIT-7                JUNCTION             16.00      4.00       0.0    Yes
  J1                   JUNCTION              3.70      5.77       0.0    Yes
  J43                  JUNCTION              2.10     11.49       0.0    Yes
  J44                  JUNCTION             -0.76     14.00       0.0
  J46                  JUNCTION              4.50      8.60       0.0    Yes
  J47                  JUNCTION              7.75     10.39       0.0    Yes
  J48                  JUNCTION              8.00     12.73       0.0    Yes
  J49                  JUNCTION              8.28     11.00       0.0    Yes
  J50                  JUNCTION             10.49     10.95       0.0    Yes
  J51                  JUNCTION              9.95     12.34       0.0    Yes
  J52                  JUNCTION             10.50     12.92       0.0
  J53                  JUNCTION             10.85     13.29       0.0    Yes
  J54                  JUNCTION             11.32     13.98       0.0
  J55                  JUNCTION             15.50     18.11       0.0    Yes
  J56                  JUNCTION             11.70     12.91       0.0
  J57                  JUNCTION             11.52     13.86       0.0
  J58                  JUNCTION             12.14     11.90       0.0
  J59                  JUNCTION             12.78      9.52       0.0
  J60                  JUNCTION             13.50      6.50       0.0    Yes
  J61                  JUNCTION             13.87      2.50       0.0    Yes
  J62                  JUNCTION             15.46     15.24       0.0    Yes
  J63                  JUNCTION             57.95      8.60       0.0    Yes
  MH-1                 JUNCTION              0.08      9.00       0.0    Yes
  MH-10                JUNCTION             25.21     22.48       0.0    Yes
  MH-101               JUNCTION             63.28     20.57       0.0
  MH-102               JUNCTION             59.80     11.15       0.0    Yes
  MH-1020              JUNCTION             37.27      6.08       0.0    Yes
  MH-1021              JUNCTION             30.62      9.63       0.0    Yes
  MH-1022              JUNCTION             29.11      5.54       0.0    Yes
  MH-1023              JUNCTION             27.57      4.38       0.0    Yes
  MH-1024              JUNCTION             25.70      4.35       0.0    Yes
  MH-1025              JUNCTION             24.36     10.19       0.0    Yes
  MH-1026              JUNCTION             24.69     14.86       0.0    Yes
  MH-103               JUNCTION             53.78     10.67       0.0    Yes
  MH-104               JUNCTION             53.49      9.46       0.0    Yes
  MH-105               JUNCTION             53.09     11.66       0.0    Yes
  MH-106               JUNCTION             52.70     14.53       0.0    Yes
  MH-107               JUNCTION             52.31     15.90       0.0    Yes
  MH-108               JUNCTION             51.96     17.29       0.0    Yes
  MH-109               JUNCTION             51.87     17.08       0.0    Yes
  MH-11                JUNCTION             24.66     27.35       0.0    Yes
  MH-110               JUNCTION             47.00     11.25       0.0    Yes
  MH-111               JUNCTION             42.16      8.69       0.0    Yes
  MH-1114              JUNCTION             42.93     11.52       0.0    Yes
  MH-1115              JUNCTION             42.46     10.09       0.0    Yes
  MH-1116              JUNCTION             41.64     10.71       0.0    Yes
  MH-1117              JUNCTION             41.53     11.32       0.0    Yes
  MH-1118              JUNCTION             41.43     11.82       0.0    Yes
  MH-1119              JUNCTION             41.34     12.11       0.0    Yes
  MH-112               JUNCTION             36.95      9.60       0.0    Yes
  MH-1128              JUNCTION             47.75      8.00       0.0    Yes
  MH-1129              JUNCTION             43.27      8.38       0.0    Yes
  MH-113               JUNCTION             33.52      9.63       0.0    Yes
  MH-114               JUNCTION             31.24      9.51       0.0    Yes
  MH-117               JUNCTION             26.66      9.28       0.0
  MH-118               JUNCTION             26.60      9.28       0.0    Yes
  MH-1192              JUNCTION             24.62      7.93       0.0    Yes
  MH-1193              JUNCTION             20.50      9.10       0.0    Yes
  MH-1194              JUNCTION             17.25      6.76       0.0    Yes
  MH-1195              JUNCTION             16.69      6.16       0.0
  MH-1196              JUNCTION             15.85      9.80       0.0    Yes
  MH-1197              JUNCTION             15.60     12.37       0.0    Yes
  MH-1198              JUNCTION             13.87     12.06       0.0    Yes
  MH-1199              JUNCTION             10.48      9.50       0.0    Yes
  MH-12                JUNCTION             24.54     26.25       0.0    Yes
  MH-1201              JUNCTION              7.00     10.00       0.0    Yes
  MH-1202              JUNCTION              6.50      9.00       0.0    Yes
  MH-1205              JUNCTION              9.00     11.00       0.0    Yes
  MH-1208              JUNCTION             25.28      5.00       0.0    Yes
  MH-1209              JUNCTION             25.05      4.23       0.0    Yes
  MH-1210              JUNCTION             11.00      9.60       0.0    Yes
  MH-1218              JUNCTION             12.75      6.26       0.0    Yes
  MH-122               JUNCTION             26.99      8.90       0.0    Yes
  MH-123               JUNCTION             27.56      9.24       0.0    Yes
  MH-125               JUNCTION             43.27     14.78       0.0    Yes
  MH-126               JUNCTION             42.95     17.10       0.0    Yes
  MH-127               JUNCTION             42.74     15.61       0.0
  MH-128               JUNCTION             41.77     16.58       0.0
  MH-129               JUNCTION             41.45     13.40       0.0    Yes
  MH-13                JUNCTION             23.50     16.85       0.0    Yes
  MH-130               JUNCTION             41.44     14.31       0.0    Yes
  MH-1321              JUNCTION             28.00     10.00       0.0    Yes
  MH-133               JUNCTION             27.81     13.15       0.0    Yes
  MH-134               JUNCTION             27.98     12.00       0.0    Yes
  MH-135               JUNCTION             32.67     10.08       0.0    Yes
  MH-136               JUNCTION             33.20      9.55       0.0    Yes
  MH-137               JUNCTION             33.68      9.07       0.0
  MH-138               JUNCTION             34.95      5.80       0.0    Yes
  MH-14                JUNCTION             25.60     19.35       0.0    Yes
  MH-144               JUNCTION             40.00     10.00       0.0    Yes
  MH-146               JUNCTION            104.75     20.81       0.0    Yes
  MH-147               JUNCTION            105.16     19.14       0.0    Yes
  MH-148               JUNCTION            105.44     17.78       0.0    Yes
  MH-149               JUNCTION            105.76     16.23       0.0    Yes
  MH-15                JUNCTION             84.56     15.12       0.0    Yes
  MH-150               JUNCTION            106.10     16.17       0.0    Yes
  MH-151               JUNCTION            105.96     17.65       0.0    Yes
  MH-152               JUNCTION            106.72     16.23       0.0    Yes
  MH-153               JUNCTION            103.48     26.30       0.0    Yes
  MH-154               JUNCTION            104.28     22.15       0.0    Yes
  MH-155               JUNCTION            103.91     25.10       0.0    Yes
  MH-156               JUNCTION            103.80     25.36       0.0    Yes
  MH-157               JUNCTION            103.18     29.38       0.0    Yes
  MH-1573              JUNCTION             21.00     11.59       0.0    Yes
  MH-1578              JUNCTION             22.25     14.50       0.0    Yes
  MH-158               JUNCTION            103.00     29.38       0.0    Yes
  MH-1588              JUNCTION             23.10     11.85       0.0    Yes
  MH-159               JUNCTION            102.21     20.81       0.0    Yes
  MH-16                JUNCTION             82.77     17.13       0.0    Yes
  MH-160               JUNCTION            102.15     20.67       0.0    Yes
  MH-161               JUNCTION            101.44     13.73       0.0    Yes
  MH-162               JUNCTION             98.51      7.70       0.0    Yes
  MH-163               JUNCTION             86.44      7.40       0.0    Yes
  MH-164               JUNCTION             80.82     11.35       0.0    Yes
  MH-165               JUNCTION             74.29      9.79       0.0    Yes
  MH-166               JUNCTION             65.25      9.12       0.0    Yes
  MH-167               JUNCTION             64.76      6.33       0.0    Yes
  MH-168               JUNCTION             63.86      5.01       0.0    Yes
  MH-169               JUNCTION             63.10      6.15       0.0
  MH-17                JUNCTION             81.43     14.86       0.0    Yes
  MH-170               JUNCTION             61.52      7.73       0.0
  MH-1701              JUNCTION             23.80     12.00       0.0    Yes
  MH-1706              JUNCTION             24.95     14.30       0.0    Yes
  MH-1707              JUNCTION             24.05      9.90       0.0    Yes
  MH-1708              JUNCTION             23.35     12.60       0.0    Yes
  MH-1709              JUNCTION             21.95     14.50       0.0    Yes
  MH-171               JUNCTION             60.69      8.06       0.0    Yes
  MH-1710              JUNCTION             21.09     12.36       0.0    Yes
  MH-1711              JUNCTION             10.00     10.00       0.0    Yes
  MH-172               JUNCTION             59.22      9.28       0.0    Yes
  MH-173               JUNCTION             58.26      8.79       0.0    Yes
  MH-174               JUNCTION             57.25      8.40       0.0    Yes
  MH-1740              JUNCTION              1.84     15.21       0.0    Yes
  MH-175               JUNCTION             56.06      7.99       0.0    Yes
  MH-176               JUNCTION             51.16      8.19       0.0    Yes
  MH-1764              JUNCTION             15.00      2.00       0.0
  MH-177               JUNCTION             46.71     10.04       0.0    Yes
  MH-1771              JUNCTION             15.78      8.47       0.0    Yes
  MH-1778              JUNCTION              1.00      7.72       0.0    Yes
  MH-178               JUNCTION             44.13      9.82       0.0    Yes
  MH-179               JUNCTION             43.84      9.61       0.0    Yes
  MH-18                JUNCTION             71.81     19.50       0.0    Yes
  MH-180               JUNCTION             39.74     10.01       0.0    Yes
  MH-181               JUNCTION             37.28      9.07       0.0    Yes
  MH-182               JUNCTION             36.10      9.00       0.0    Yes
  MH-1829              JUNCTION             17.07     10.28       0.0    Yes
  MH-183               JUNCTION             35.63      8.07       0.0
  MH-1830              JUNCTION             24.97     15.04       0.0    Yes
  MH-1831              JUNCTION             26.60      8.39       0.0    Yes
  MH-1832              JUNCTION             16.25      7.70       0.0    Yes
  MH-1833              JUNCTION             14.59      8.27       0.0    Yes
  MH-184               JUNCTION             32.79      9.60       0.0
  MH-1846              JUNCTION             12.39      9.96       0.0    Yes
  MH-1847              JUNCTION             12.95     10.00       0.0    Yes
  MH-185               JUNCTION             32.70      9.60       0.0    Yes
  MH-186               JUNCTION             32.48      8.67       0.0    Yes
  MH-1863              JUNCTION              5.00      7.20       0.0    Yes
  MH-1865              JUNCTION              3.00      7.71       0.0    Yes
  MH-187               JUNCTION             31.23      9.05       0.0    Yes
  MH-188               JUNCTION             30.61      9.68       0.0    Yes
  MH-189               JUNCTION             29.91     12.88       0.0    Yes
  MH-189-A             JUNCTION             28.40     14.00       0.0
  MH-19                JUNCTION             70.85     16.00       0.0    Yes
  MH-190               JUNCTION             29.14     15.47       0.0    Yes
  MH-191               JUNCTION             28.36     15.53       0.0    Yes
  MH-192               JUNCTION             27.66     14.09       0.0    Yes
  MH-193               JUNCTION             26.96     12.27       0.0
  MH-194               JUNCTION             26.76     12.38       0.0    Yes
  MH-1943              JUNCTION             42.63      9.83       0.0    Yes
  MH-195               JUNCTION             26.00     11.75       0.0    Yes
  MH-196               JUNCTION             24.92     11.98       0.0    Yes
  MH-197               JUNCTION             25.00     15.00       0.0    Yes
  MH-198               JUNCTION             38.25      9.20       0.0    Yes
  MH-2                 JUNCTION             -0.18     10.00       0.0
  MH-20                JUNCTION             70.93     16.45       0.0    Yes
  MH-200               JUNCTION             18.32     16.85       0.0    Yes
  MH-201               JUNCTION             17.98     16.57       0.0    Yes
  MH-202               JUNCTION             17.68     15.47       0.0
  MH-203               JUNCTION             17.42     14.53       0.0
  MH-2032              JUNCTION             31.37     12.34       0.0    Yes
  MH-2033              JUNCTION             30.50     12.86       0.0    Yes
  MH-2034              JUNCTION             29.82     12.59       0.0    Yes
  MH-204               JUNCTION             17.37     16.78       0.0
  MH-205               JUNCTION             17.22     14.53       0.0    Yes
  MH-206               JUNCTION             22.63      7.60       0.0    Yes
  MH-2070              JUNCTION             30.00     16.75       0.0    Yes
  MH-209               JUNCTION             27.04     22.96       0.0    Yes
  MH-21                JUNCTION             67.30     18.25       0.0    Yes
  MH-210               JUNCTION             27.48      9.19       0.0
  MH-212               JUNCTION             28.08     21.92       0.0    Yes
  MH-2126              JUNCTION             19.78     10.02       0.0    Yes
  MH-2127              JUNCTION             19.45      9.50       0.0    Yes
  MH-2128              JUNCTION             19.25      9.61       0.0    Yes
  MH-213               JUNCTION             28.28     21.72       0.0    Yes
  MH-214               JUNCTION             28.69     21.31       0.0    Yes
  MH-2141              JUNCTION             27.31     18.99       0.0    Yes
  MH-2152              JUNCTION             19.55      9.40       0.0    Yes
  MH-2153              JUNCTION             19.50      9.45       0.0
  MH-2156              JUNCTION             13.15      9.00       0.0    Yes
  MH-2157              JUNCTION             12.47     10.00       0.0    Yes
  MH-2158              JUNCTION             13.21     12.00       0.0    Yes
  MH-2159              JUNCTION             17.00     12.00       0.0    Yes
  MH-216               JUNCTION             30.17     19.83       0.0    Yes
  MH-2161              JUNCTION             16.90     11.30       0.0    Yes
  MH-2162              JUNCTION             12.70     11.25       0.0    Yes
  MH-2164              JUNCTION              8.60     11.40       0.0    Yes
  MH-217               JUNCTION             30.46     19.54       0.0    Yes
  MH-218               JUNCTION             30.78     19.22       0.0    Yes
  MH-2184              JUNCTION             36.10      1.50       0.0    Yes
  MH-219               JUNCTION             34.56     15.44       0.0    Yes
  MH-22                JUNCTION             66.82     17.84       0.0    Yes
  MH-220               JUNCTION             34.85     15.15       0.0    Yes
  MH-221               JUNCTION             35.17     12.28       0.0    Yes
  MH-222               JUNCTION             36.56     12.39       0.0    Yes
  MH-223               JUNCTION             37.81     11.54       0.0    Yes
  MH-2231              JUNCTION             12.32      9.73       0.0    Yes
  MH-2232              JUNCTION             11.37      8.11       0.0    Yes
  MH-224               JUNCTION             39.19     13.36       0.0    Yes
  MH-225               JUNCTION             40.27     10.68       0.0    Yes
  MH-226               JUNCTION             42.56     10.09       0.0    Yes
  MH-227               JUNCTION             47.88      8.87       0.0    Yes
  MH-229               JUNCTION             49.42     11.55       0.0    Yes
  MH-230               JUNCTION             50.10      5.51       0.0    Yes
  MH-231               JUNCTION             50.64     10.00       0.0    Yes
  MH-232               JUNCTION             61.35      2.00       0.0    Yes
  MH-233               JUNCTION             63.00      4.41       0.0    Yes
  MH-235               JUNCTION             64.47     12.17       0.0    Yes
  MH-2353              JUNCTION             30.78      9.50       0.0
  MH-236               JUNCTION             72.03      7.25       0.0    Yes
  MH-2366              JUNCTION              9.07     19.29       0.0    Yes
  MH-2367              JUNCTION              8.77     20.27       0.0
  MH-2368              JUNCTION              8.54     19.89       0.0    Yes
  MH-2369              JUNCTION              8.39     20.40       0.0
  MH-237               JUNCTION             77.46      8.79       0.0    Yes
  MH-2370              JUNCTION              8.53     21.01       0.0    Yes
  MH-2372              JUNCTION              8.00     18.05       0.0
  MH-238               JUNCTION             77.52      9.79       0.0    Yes
  MH-2381              JUNCTION              7.60     14.87       0.0
  MH-239               JUNCTION             69.19     20.68       0.0    Yes
  MH-2392              JUNCTION              1.50     10.00       0.0
  MH-2393              JUNCTION              4.00      7.58       0.0
  MH-2394              JUNCTION              5.00     11.08       0.0    Yes
  MH-2395              JUNCTION              7.77     14.88       0.0
  MH-24                JUNCTION             66.03     20.54       0.0    Yes
  MH-240               JUNCTION             78.32     11.68       0.0    Yes
  MH-241               JUNCTION             79.00     11.00       0.0
  MH-2417              JUNCTION             13.00     12.14       0.0
  MH-242               JUNCTION             80.74     13.01       0.0    Yes
  MH-243               JUNCTION             81.04     12.11       0.0    Yes
  MH-244               JUNCTION             81.35     13.40       0.0    Yes
  MH-245               JUNCTION             81.67     13.08       0.0    Yes
  MH-246               JUNCTION             81.50      8.50       0.0    Yes
  MH-247               JUNCTION             82.27     11.38       0.0    Yes
  MH-248               JUNCTION             82.78      7.22       0.0    Yes
  MH-249               JUNCTION             82.85      6.50       0.0    Yes
  MH-250               JUNCTION             83.61      4.91       0.0    Yes
  MH-251               JUNCTION             84.29     11.83       0.0
  MH-252               JUNCTION             92.57     15.78       0.0    Yes
  MH-253               JUNCTION             93.00     21.44       0.0    Yes
  MH-254               JUNCTION             93.77     12.18       0.0    Yes
  MH-255               JUNCTION             97.18     11.97       0.0    Yes
  MH-256               JUNCTION            100.83     10.00       0.0    Yes
  MH-257               JUNCTION            102.84     16.91       0.0    Yes
  MH-258               JUNCTION            105.48     16.12       0.0    Yes
  MH-259               JUNCTION            108.83      4.82       0.0    Yes
  MH-26                JUNCTION             64.54     23.00       0.0    Yes
  MH-260               JUNCTION            108.11      7.94       0.0    Yes
  MH-261               JUNCTION            107.58     10.47       0.0    Yes
  MH-262               JUNCTION            107.05     14.10       0.0    Yes
  MH-263               JUNCTION            113.61      9.14       0.0    Yes
  MH-264               JUNCTION            108.93      5.82       0.0    Yes
  MH-265               JUNCTION            110.73      5.62       0.0    Yes
  MH-266               JUNCTION            111.43      8.62       0.0    Yes
  MH-267               JUNCTION            114.80     12.25       0.0    Yes
  MH-268               JUNCTION            115.94     18.11       0.0    Yes
  MH-269               JUNCTION            117.10      9.35       0.0    Yes
  MH-27                JUNCTION             65.13     17.25       0.0    Yes
  MH-270               JUNCTION            118.20      8.15       0.0    Yes
  MH-2708              JUNCTION             85.42     20.73       0.0    Yes
  MH-271               JUNCTION            118.70     12.05       0.0    Yes
  MH-272               JUNCTION            119.35      9.30       0.0
  MH-273               JUNCTION            120.03      9.32       0.0    Yes
  MH-274               JUNCTION            120.53     10.02       0.0
  MH-275               JUNCTION             -1.11     20.00       0.0    Yes
  MH-276               JUNCTION             -1.00     19.53       0.0    Yes
  MH-277               JUNCTION             -0.46     18.51       0.0    Yes
  MH-278               JUNCTION             -0.13     17.03       0.0    Yes
  MH-2783              JUNCTION            121.51     11.84       0.0    Yes
  MH-2784              JUNCTION            120.95     10.00       0.0    Yes
  MH-2787              JUNCTION            121.53     11.72       0.0    Yes
  MH-2788              JUNCTION            122.33     13.72       0.0    Yes
  MH-2789              JUNCTION            122.87     20.88       0.0    Yes
  MH-279               JUNCTION              0.25     16.20       0.0    Yes
  MH-2794              JUNCTION            124.29     14.28       0.0    Yes
  MH-2795              JUNCTION            124.23     15.97       0.0    Yes
  MH-2796              JUNCTION            123.72     16.14       0.0    Yes
  MH-28                JUNCTION             65.80     19.57       0.0    Yes
  MH-280               JUNCTION              0.63     14.72       0.0    Yes
  MH-2801              JUNCTION            126.48     17.87       0.0    Yes
  MH-2802              JUNCTION            127.00     14.75       0.0
  MH-2803              JUNCTION            128.82     13.53       0.0    Yes
  MH-281               JUNCTION              0.74     14.31       0.0    Yes
  MH-2811              JUNCTION            128.93     12.82       0.0    Yes
  MH-2812              JUNCTION            128.95     12.80       0.0    Yes
  MH-2813              JUNCTION            128.14     15.71       0.0    Yes
  MH-2814              JUNCTION            127.71     14.04       0.0    Yes
  MH-2818              JUNCTION            129.02     12.73       0.0    Yes
  MH-2819              JUNCTION            129.61     19.94       0.0    Yes
  MH-282               JUNCTION              1.02     14.73       0.0    Yes
  MH-2820              JUNCTION            137.60     15.15       0.0    Yes
  MH-2821              JUNCTION            138.00     12.00       0.0    Yes
  MH-2822              JUNCTION            138.20     11.80       0.0    Yes
  MH-2823              JUNCTION            133.00      4.89       0.0
  MH-283               JUNCTION              3.26     26.29       0.0
  MH-284               JUNCTION              2.50      9.10       0.0    Yes
  MH-285               JUNCTION              5.40     13.24       0.0    Yes
  MH-286               JUNCTION              4.50     13.41       0.0    Yes
  MH-2862              JUNCTION            126.04     18.71       0.0    Yes
  MH-2864              JUNCTION            125.67     19.38       0.0    Yes
  MH-2865              JUNCTION            125.14     16.91       0.0    Yes
  MH-287               JUNCTION              3.58     19.17       0.0    Yes
  MH-2873              JUNCTION            125.35      3.40       0.0    Yes
  MH-2874              JUNCTION            125.00      3.19       0.0    Yes
  MH-288               JUNCTION              7.00     11.09       0.0    Yes
  MH-289               JUNCTION             33.67     14.58       0.0    Yes
  MH-29                JUNCTION             64.00     23.54       0.0    Yes
  MH-290               JUNCTION             26.37     19.88       0.0    Yes
  MH-291               JUNCTION             20.66     15.09       0.0    Yes
  MH-292               JUNCTION             18.04     19.41       0.0    Yes
  MH-293               JUNCTION             17.50     15.29       0.0    Yes
  MH-294               JUNCTION             39.99     11.26       0.0    Yes
  MH-295               JUNCTION             42.75     18.00       0.0    Yes
  MH-296               JUNCTION             44.10     11.65       0.0    Yes
  MH-297               JUNCTION             45.36     10.19       0.0    Yes
  MH-298               JUNCTION             46.58      4.42       0.0    Yes
  MH-3                 JUNCTION             -2.73     22.73       0.0
  MH-30                JUNCTION             63.00     24.54       0.0    Yes
  MH-302               JUNCTION             85.68     21.77       0.0    Yes
  MH-303               JUNCTION             86.42     11.53       0.0    Yes
  MH-304               JUNCTION             86.65      9.90       0.0    Yes
  MH-305               JUNCTION             85.11     11.64       0.0    Yes
  MH-306               JUNCTION             84.72      8.03       0.0    Yes
  MH-308               JUNCTION             84.19     10.26       0.0    Yes
  MH-309               JUNCTION             84.02     10.73       0.0    Yes
  MH-31                JUNCTION             62.00     11.58       0.0    Yes
  MH-310               JUNCTION             79.35     10.10       0.0    Yes
  MH-311               JUNCTION             79.83      8.92       0.0    Yes
  MH-312               JUNCTION             82.56     10.09       0.0    Yes
  MH-313               JUNCTION             78.38      8.97       0.0    Yes
  MH-314               JUNCTION             77.57     12.28       0.0    Yes
  MH-315               JUNCTION             76.92     12.23       0.0    Yes
  MH-316               JUNCTION             76.26      9.69       0.0    Yes
  MH-317               JUNCTION             75.00      5.00       0.0    Yes
  MH-318               JUNCTION             74.35      9.20       0.0    Yes
  MH-319               JUNCTION             73.22      9.53       0.0    Yes
  MH-32                JUNCTION             61.39     12.19       0.0    Yes
  MH-320               JUNCTION             72.61     10.74       0.0    Yes
  MH-321               JUNCTION             70.75     10.00       0.0    Yes
  MH-322               JUNCTION             69.91     13.04       0.0    Yes
  MH-323               JUNCTION             68.79     11.36       0.0
  MH-324               JUNCTION             68.41      9.34       0.0    Yes
  MH-325               JUNCTION             68.17     11.98       0.0    Yes
  MH-326               JUNCTION             66.92     11.33       0.0    Yes
  MH-327               JUNCTION             66.14     14.11       0.0    Yes
  MH-3277              JUNCTION             74.00     10.00       0.0    Yes
  MH-3278              JUNCTION             68.33     10.00       0.0
  MH-328               JUNCTION             66.02     12.93       0.0
  MH-329               JUNCTION             63.71     11.84       0.0    Yes
  MH-33                JUNCTION             60.61     12.20       0.0    Yes
  MH-330               JUNCTION             63.31     10.14       0.0    Yes
  MH-331               JUNCTION             62.77     10.78       0.0
  MH-332               JUNCTION             62.99     10.16       0.0
  MH-333               JUNCTION             62.57     11.18       0.0
  MH-334               JUNCTION             62.23     10.92       0.0    Yes
  MH-335               JUNCTION             62.09     10.66       0.0    Yes
  MH-336               JUNCTION             62.01     10.28       0.0
  MH-337               JUNCTION             61.47     10.78       0.0
  MH-338               JUNCTION             60.93     10.40       0.0
  MH-339               JUNCTION             60.50      2.87       0.0
  MH-34                JUNCTION             59.73     14.29       0.0    Yes
  MH-340               JUNCTION             60.25     10.90       0.0    Yes
  MH-341               JUNCTION             60.10      9.46       0.0    Yes
  MH-342               JUNCTION             60.00      8.71       0.0
  MH-343               JUNCTION             59.80      9.50       0.0
  MH-344               JUNCTION             59.50     10.39       0.0    Yes
  MH-345               JUNCTION             58.00     14.43       0.0    Yes
  MH-346               JUNCTION             59.00      9.91       0.0    Yes
  MH-347               JUNCTION             56.63     12.38       0.0    Yes
  MH-348               JUNCTION             54.14     11.61       0.0
  MH-349               JUNCTION             53.70     11.61       0.0
  MH-35                JUNCTION             59.55     19.10       0.0    Yes
  MH-350               JUNCTION             51.48     14.05       0.0    Yes
  MH-351               JUNCTION             50.33     14.02       0.0    Yes
  MH-352               JUNCTION             49.41     14.95       0.0    Yes
  MH-353               JUNCTION             47.00     12.35       0.0    Yes
  MH-354               JUNCTION             48.00     13.09       0.0    Yes
  MH-355               JUNCTION             46.00     12.15       0.0
  MH-356               JUNCTION             43.83     12.90       0.0
  MH-357               JUNCTION             43.10     12.85       0.0    Yes
  MH-358               JUNCTION             42.58     12.85       0.0
  MH-359               JUNCTION             41.43     14.15       0.0    Yes
  MH-36                JUNCTION             59.49     20.06       0.0    Yes
  MH-360               JUNCTION             41.71     10.84       0.0    Yes
  MH-361               JUNCTION             40.04     11.71       0.0    Yes
  MH-362               JUNCTION             39.19     12.76       0.0
  MH-363               JUNCTION             36.77     13.38       0.0    Yes
  MH-3637              JUNCTION            145.41     23.00       0.0    Yes
  MH-3638              JUNCTION            144.66     20.09       0.0    Yes
  MH-364               JUNCTION             36.65     12.90       0.0
  MH-365               JUNCTION             37.43     14.22       0.0    Yes
  MH-366               JUNCTION             37.72     14.03       0.0    Yes
  MH-367               JUNCTION             37.85     13.90       0.0    Yes
  MH-368               JUNCTION             38.23     13.52       0.0    Yes
  MH-369               JUNCTION             38.90     14.65       0.0
  MH-37                JUNCTION             58.76     15.22       0.0    Yes
  MH-370               JUNCTION             36.23     15.02       0.0    Yes
  MH-371               JUNCTION             35.76     14.99       0.0    Yes
  MH-3711              JUNCTION             24.70      9.05       0.0    Yes
  MH-372               JUNCTION             35.23     16.02       0.0    Yes
  MH-373               JUNCTION             35.05     16.00       0.0
  MH-374               JUNCTION             34.69     15.96       0.0    Yes
  MH-375               JUNCTION             33.93     17.02       0.0    Yes
  MH-376               JUNCTION             33.39     17.46       0.0    Yes
  MH-377               JUNCTION             32.90     15.55       0.0    Yes
  MH-378               JUNCTION             32.45     16.00       0.0    Yes
  MH-379               JUNCTION             31.88     18.17       0.0    Yes
  MH-38                JUNCTION             58.38     12.99       0.0    Yes
  MH-380               JUNCTION             31.53     22.92       0.0    Yes
  MH-381               JUNCTION             31.23     14.25       0.0    Yes
  MH-382               JUNCTION             31.00     15.02       0.0    Yes
  MH-383               JUNCTION             30.60     15.33       0.0    Yes
  MH-384               JUNCTION             30.38     14.64       0.0    Yes
  MH-385               JUNCTION             30.00     16.02       0.0    Yes
  MH-386               JUNCTION             29.36     16.36       0.0    Yes
  MH-387               JUNCTION             28.90     15.75       0.0    Yes
  MH-388               JUNCTION             28.65     16.20       0.0    Yes
  MH-389               JUNCTION             28.07      9.98       0.0    Yes
  MH-3897              JUNCTION              2.00      5.00       0.0    Yes
  MH-39                JUNCTION             58.09     14.46       0.0    Yes
  MH-390               JUNCTION             27.75     15.30       0.0    Yes
  MH-3903              JUNCTION              1.00      7.00       0.0    Yes
  MH-391               JUNCTION             27.48     13.87       0.0    Yes
  MH-392               JUNCTION             26.83     11.02       0.0    Yes
  MH-393               JUNCTION             26.29     21.96       0.0
  MH-394               JUNCTION             25.87      8.78       0.0    Yes
  MH-395               JUNCTION             25.42      9.13       0.0    Yes
  MH-396               JUNCTION             24.95      9.20       0.0    Yes
  MH-397               JUNCTION             24.60      9.65       0.0    Yes
  MH-398               JUNCTION             24.00     13.75       0.0
  MH-399               JUNCTION             23.11     11.84       0.0
  MH-40                JUNCTION             57.49     13.35       0.0    Yes
  MH-400               JUNCTION             22.63     12.92       0.0    Yes
  MH-401               JUNCTION             22.00     14.55       0.0    Yes
  MH-402               JUNCTION             21.34      8.11       0.0    Yes
  MH-403               JUNCTION             20.85      7.00       0.0    Yes
  MH-404               JUNCTION             20.50      7.35       0.0    Yes
  MH-405               JUNCTION             19.84      7.31       0.0    Yes
  MH-4050              JUNCTION             78.77      9.78       0.0    Yes
  MH-4051              JUNCTION             77.17     10.00       0.0    Yes
  MH-406               JUNCTION             19.53      7.32       0.0    Yes
  MH-407               JUNCTION             18.67      7.38       0.0    Yes
  MH-408               JUNCTION             17.99      8.46       0.0    Yes
  MH-409               JUNCTION             17.12      9.13       0.0    Yes
  MH-41                JUNCTION             57.09     12.29       0.0    Yes
  MH-410               JUNCTION             16.45      9.45       0.0    Yes
  MH-4106              JUNCTION             40.46      7.59       0.0    Yes
  MH-4107              JUNCTION             43.84     15.11       0.0    Yes
  MH-4108              JUNCTION             44.51     12.24       0.0
  MH-4109              JUNCTION             44.70     34.05       0.0
  MH-4110              JUNCTION             45.24      5.51       0.0    Yes
  MH-4111              JUNCTION             49.23      7.72       0.0    Yes
  MH-4112              JUNCTION             74.44      8.31       0.0    Yes
  MH-4113              JUNCTION             71.83      7.92       0.0    Yes
  MH-4114              JUNCTION             65.75      8.40       0.0    Yes
  MH-4115              JUNCTION             58.35      9.80       0.0    Yes
  MH-412               JUNCTION             16.58     14.50       0.0    Yes
  MH-4126              JUNCTION             74.95      8.00       0.0    Yes
  MH-4127              JUNCTION             76.26     10.99       0.0    Yes
  MH-413               JUNCTION             15.73      7.12       0.0    Yes
  MH-414               JUNCTION             13.42      5.33       0.0    Yes
  MH-415               JUNCTION             12.83      5.72       0.0    Yes
  MH-416               JUNCTION             12.22     12.65       0.0
  MH-4160              JUNCTION             29.34     12.71       0.0    Yes
  MH-4161              JUNCTION             28.85     15.40       0.0    Yes
  MH-4162              JUNCTION             28.48     14.47       0.0    Yes
  MH-4163              JUNCTION             28.12     10.83       0.0    Yes
  MH-4164              JUNCTION             27.62      7.93       0.0    Yes
  MH-4165              JUNCTION             27.29      8.56       0.0    Yes
  MH-4166              JUNCTION             26.87      9.78       0.0    Yes
  MH-4167              JUNCTION             26.48     18.17       0.0    Yes
  MH-417               JUNCTION             12.12     12.66       0.0    Yes
  MH-418               JUNCTION              9.46     12.76       0.0    Yes
  MH-419               JUNCTION              9.95      6.70       0.0    Yes
  MH-42                JUNCTION             56.56     12.39       0.0    Yes
  MH-420               JUNCTION              9.50      5.85       0.0    Yes
  MH-421               JUNCTION              9.18      5.97       0.0    Yes
  MH-423               JUNCTION              8.97      8.18       0.0    Yes
  MH-4239              JUNCTION             20.00     22.75       0.0    Yes
  MH-424               JUNCTION              8.89      9.16       0.0    Yes
  MH-426               JUNCTION              8.70      9.65       0.0    Yes
  MH-427               JUNCTION              8.56      9.89       0.0    Yes
  MH-428               JUNCTION              8.50      9.45       0.0    Yes
  MH-429               JUNCTION              8.36      8.59       0.0    Yes
  MH-43                JUNCTION             54.91     14.73       0.0
  MH-430               JUNCTION              8.40      5.27       0.0    Yes
  MH-431               JUNCTION              8.30      8.39       0.0    Yes
  MH-432               JUNCTION              8.25      9.30       0.0    Yes
  MH-433               JUNCTION              8.20      7.88       0.0    Yes
  MH-434               JUNCTION              7.85      7.20       0.0    Yes
  MH-435               JUNCTION              7.50      8.45       0.0    Yes
  MH-436               JUNCTION              7.40      9.25       0.0    Yes
  MH-437               JUNCTION              7.32      9.33       0.0    Yes
  MH-4383              JUNCTION             19.30      8.80       0.0    Yes
  MH-4385              JUNCTION             18.68      8.40       0.0    Yes
  MH-4386              JUNCTION             18.23     10.10       0.0    Yes
  MH-4387              JUNCTION             17.00     10.10       0.0    Yes
  MH-4388              JUNCTION             14.25     12.50       0.0    Yes
  MH-439               JUNCTION              7.20      9.35       0.0    Yes
  MH-4395              JUNCTION             20.80     14.45       0.0    Yes
  MH-4396              JUNCTION             22.40     12.85       0.0    Yes
  MH-4397              JUNCTION             21.89     13.86       0.0    Yes
  MH-4398              JUNCTION             20.42      8.83       0.0    Yes
  MH-44                JUNCTION             54.70     20.34       0.0
  MH-440               JUNCTION              7.08      9.37       0.0    Yes
  MH-441               JUNCTION              6.98      9.67       0.0    Yes
  MH-442               JUNCTION              6.78     13.67       0.0    Yes
  MH-443               JUNCTION              6.72     12.03       0.0    Yes
  MH-444               JUNCTION              6.55     12.60       0.0    Yes
  MH-445               JUNCTION              6.47     11.78       0.0    Yes
  MH-446               JUNCTION              6.25     12.34       0.0    Yes
  MH-447               JUNCTION              5.19     11.26       0.0    Yes
  MH-448               JUNCTION              5.02     13.53       0.0    Yes
  MH-449               JUNCTION              4.86     11.69       0.0
  MH-45                JUNCTION             54.53     18.65       0.0
  MH-450               JUNCTION              4.69     12.76       0.0
  MH-451               JUNCTION              4.48     16.17       0.0    Yes
  MH-4513              JUNCTION            122.59     13.50       0.0    Yes
  MH-452               JUNCTION              4.60     14.15       0.0    Yes
  MH-4528              JUNCTION            115.17     23.95       0.0    Yes
  MH-4533              JUNCTION            133.05     10.15       0.0    Yes
  MH-4542              JUNCTION            124.05     13.10       0.0    Yes
  MH-455               JUNCTION             23.34     14.31       0.0    Yes
  MH-456               JUNCTION             31.25     12.53       0.0    Yes
  MH-457               JUNCTION             31.00     12.00       0.0    Yes
  MH-458               JUNCTION             23.25     14.70       0.0
  MH-459               JUNCTION             26.77     11.08       0.0    Yes
  MH-46                JUNCTION             53.17     23.33       0.0    Yes
  MH-460               JUNCTION             34.12     11.39       0.0    Yes
  MH-4604              JUNCTION            144.12     18.13       0.0    Yes
  MH-461               JUNCTION             34.32     17.08       0.0    Yes
  MH-462               JUNCTION             34.52     11.66       0.0    Yes
  MH-463               JUNCTION             34.71     12.70       0.0    Yes
  MH-464               JUNCTION             34.81      8.14       0.0    Yes
  MH-4644              JUNCTION             84.60      7.10       0.0    Yes
  MH-4645              JUNCTION             84.29     13.60       0.0    Yes
  MH-465               JUNCTION             34.97      8.58       0.0    Yes
  MH-466               JUNCTION             35.07      8.28       0.0
  MH-467               JUNCTION             35.10      8.05       0.0    Yes
  MH-468               JUNCTION             35.19      8.96       0.0    Yes
  MH-469               JUNCTION             35.75     11.90       0.0    Yes
  MH-47                JUNCTION             52.15     21.47       0.0    Yes
  MH-470               JUNCTION             35.87     11.08       0.0    Yes
  MH-471               JUNCTION             36.29      8.36       0.0    Yes
  MH-472               JUNCTION             36.73      7.62       0.0    Yes
  MH-4725              JUNCTION            106.76     14.99       0.0    Yes
  MH-473               JUNCTION             37.07      7.98       0.0    Yes
  MH-474               JUNCTION             37.66     13.09       0.0    Yes
  MH-477               JUNCTION             38.04     13.21       0.0    Yes
  MH-478               JUNCTION             38.31     13.44       0.0
  MH-479               JUNCTION             38.54     13.61       0.0    Yes
  MH-480               JUNCTION             38.81     13.74       0.0    Yes
  MH-481               JUNCTION             39.01     12.84       0.0    Yes
  MH-4813              JUNCTION             27.48      2.07       0.0    Yes
  MH-482               JUNCTION             39.19     11.96       0.0    Yes
  MH-483               JUNCTION             39.31     11.54       0.0
  MH-484               JUNCTION             39.44     11.01       0.0
  MH-4845              JUNCTION             65.29     12.88       0.0    Yes
  MH-485               JUNCTION             39.19     11.55       0.0    Yes
  MH-486               JUNCTION             39.45     12.21       0.0    Yes
  MH-4863              JUNCTION             14.15     10.90       0.0
  MH-4869              JUNCTION             17.88      3.67       0.0    Yes
  MH-487               JUNCTION             39.49     12.33       0.0    Yes
  MH-488               JUNCTION             40.20     13.60       0.0    Yes
  MH-489               JUNCTION             40.34     13.41       0.0    Yes
  MH-491               JUNCTION             41.57     15.58       0.0    Yes
  MH-4917              JUNCTION            104.77     10.28       0.0    Yes
  MH-4918              JUNCTION             88.75      8.70       0.0
  MH-4919              JUNCTION             85.22      8.03       0.0    Yes
  MH-492               JUNCTION             41.42     14.54       0.0    Yes
  MH-4920              JUNCTION             79.98      7.97       0.0    Yes
  MH-4921              JUNCTION             73.98      8.00       0.0    Yes
  MH-4922              JUNCTION             68.20      8.95       0.0    Yes
  MH-4923              JUNCTION             67.31      7.64       0.0    Yes
  MH-493               JUNCTION             43.77     15.86       0.0    Yes
  MH-494               JUNCTION             45.67     14.95       0.0    Yes
  MH-4947              JUNCTION             49.10     10.15       0.0    Yes
  MH-495               JUNCTION             47.41     14.44       0.0    Yes
  MH-496               JUNCTION             48.21     14.86       0.0    Yes
  MH-497               JUNCTION             48.24     15.26       0.0    Yes
  MH-498               JUNCTION             48.50     14.82       0.0    Yes
  MH-499               JUNCTION             55.40     16.02       0.0    Yes
  MH-5                 JUNCTION             -1.00     15.00       0.0    Yes
  MH-50                JUNCTION             50.93     17.06       0.0    Yes
  MH-500               JUNCTION             55.50     16.90       0.0    Yes
  MH-501               JUNCTION             55.75     18.05       0.0    Yes
  MH-502               JUNCTION             56.17     13.92       0.0    Yes
  MH-503               JUNCTION             57.36     13.72       0.0    Yes
  MH-504               JUNCTION             57.46     14.59       0.0    Yes
  MH-505               JUNCTION             57.66     13.79       0.0    Yes
  MH-506               JUNCTION             67.58     13.97       0.0    Yes
  MH-507               JUNCTION             65.41     14.94       0.0    Yes
  MH-508               JUNCTION             58.53     16.22       0.0    Yes
  MH-509               JUNCTION             69.59     18.36       0.0    Yes
  MH-51                JUNCTION             50.57     21.76       0.0    Yes
  MH-510               JUNCTION             69.31     17.67       0.0    Yes
  MH-511               JUNCTION             69.18     16.48       0.0    Yes
  MH-512               JUNCTION             69.11     15.65       0.0    Yes
  MH-513               JUNCTION             68.83     14.58       0.0    Yes
  MH-514               JUNCTION             68.21     14.11       0.0    Yes
  MH-515               JUNCTION             70.64     23.66       0.0    Yes
  MH-516               JUNCTION             70.78     22.62       0.0    Yes
  MH-517               JUNCTION             70.48     22.97       0.0    Yes
  MH-518               JUNCTION             70.10     23.44       0.0    Yes
  MH-519               JUNCTION             70.02     19.90       0.0    Yes
  MH-52                JUNCTION             50.04     24.72       0.0    Yes
  MH-520               JUNCTION             69.99     20.13       0.0    Yes
  MH-521               JUNCTION             72.15     12.40       0.0    Yes
  MH-522               JUNCTION             71.97     14.08       0.0    Yes
  MH-5225              JUNCTION             68.99     13.49       0.0    Yes
  MH-5226              JUNCTION             69.15     19.82       0.0    Yes
  MH-5229              JUNCTION             84.90     14.00       0.0    Yes
  MH-523               JUNCTION             71.48     15.67       0.0    Yes
  MH-5230              JUNCTION             84.70     13.79       0.0    Yes
  MH-5231              JUNCTION             84.92     10.39       0.0    Yes
  MH-5232              JUNCTION             90.89     13.42       0.0
  MH-5233              JUNCTION             92.52     14.71       0.0    Yes
  MH-5234              JUNCTION            109.51     15.99       0.0    Yes
  MH-5235              JUNCTION            104.32     15.75       0.0    Yes
  MH-5236              JUNCTION             98.01     10.67       0.0    Yes
  MH-524               JUNCTION             71.41     16.74       0.0    Yes
  MH-525               JUNCTION             71.18     20.47       0.0    Yes
  MH-5262              JUNCTION             69.76     14.05       0.0    Yes
  MH-5263              JUNCTION             69.64     13.03       0.0    Yes
  MH-5264              JUNCTION             69.34     11.53       0.0    Yes
  MH-5269              JUNCTION             69.82     16.34       0.0    Yes
  MH-527               JUNCTION             72.51     10.27       0.0    Yes
  MH-5279              JUNCTION            129.73     15.70       0.0    Yes
  MH-528               JUNCTION             72.93     10.68       0.0    Yes
  MH-529               JUNCTION             73.30      8.20       0.0    Yes
  MH-53                JUNCTION             49.67     15.80       0.0    Yes
  MH-530               JUNCTION             73.34      8.20       0.0    Yes
  MH-5302              JUNCTION            137.05     12.95       0.0    Yes
  MH-531               JUNCTION             73.62      7.23       0.0    Yes
  MH-532               JUNCTION             74.00     10.65       0.0    Yes
  MH-533               JUNCTION             73.78      7.77       0.0    Yes
  MH-534               JUNCTION             74.60     12.35       0.0    Yes
  MH-5345              JUNCTION            143.85     11.50       0.0    Yes
  MH-535               JUNCTION             76.04     11.31       0.0    Yes
  MH-5359              JUNCTION            138.16     11.84       0.0    Yes
  MH-536               JUNCTION             76.60     12.77       0.0    Yes
  MH-5365              JUNCTION             25.87     14.75       0.0    Yes
  MH-5366              JUNCTION             23.63     21.12       0.0    Yes
  MH-5367              JUNCTION             31.37     21.38       0.0    Yes
  MH-5368              JUNCTION             31.17     16.58       0.0    Yes
  MH-5369              JUNCTION             30.56     14.19       0.0    Yes
  MH-537               JUNCTION             76.78     12.77       0.0    Yes
  MH-5370              JUNCTION             29.70     12.55       0.0    Yes
  MH-5371              JUNCTION             32.95      8.80       0.0    Yes
  MH-5372              JUNCTION             32.13     15.62       0.0    Yes
  MH-5374              JUNCTION             47.55     11.20       0.0    Yes
  MH-5375              JUNCTION             41.46     10.29       0.0    Yes
  MH-5376              JUNCTION             34.49      9.26       0.0    Yes
  MH-5377              JUNCTION             33.93      7.82       0.0    Yes
  MH-538               JUNCTION             82.13     18.12       0.0    Yes
  MH-539               JUNCTION             78.68     18.69       0.0    Yes
  MH-54                JUNCTION             49.05     23.41       0.0    Yes
  MH-540               JUNCTION             78.15     16.47       0.0    Yes
  MH-541               JUNCTION             77.91     17.11       0.0    Yes
  MH-542               JUNCTION             77.27     16.49       0.0    Yes
  MH-543               JUNCTION             83.10     17.23       0.0    Yes
  MH-544               JUNCTION             83.20     18.72       0.0    Yes
  MH-545               JUNCTION             83.50     23.60       0.0    Yes
  MH-546               JUNCTION             83.90     23.30       0.0    Yes
  MH-547               JUNCTION             22.72     16.53       0.0    Yes
  MH-5471              JUNCTION            121.85     18.74       0.0    Yes
  MH-5475              JUNCTION            121.69     10.56       0.0    Yes
  MH-548               JUNCTION             23.14     15.41       0.0    Yes
  MH-5481              JUNCTION            121.60     20.07       0.0    Yes
  MH-5499              JUNCTION            121.25     16.44       0.0    Yes
  MH-55                JUNCTION             48.21     19.34       0.0    Yes
  MH-5508              JUNCTION            117.58      5.00       0.0    Yes
  MH-551               JUNCTION             24.45      8.45       0.0    Yes
  MH-5514              JUNCTION            111.45     10.50       0.0    Yes
  MH-552               JUNCTION             22.26     14.79       0.0    Yes
  MH-553               JUNCTION             21.82     13.43       0.0    Yes
  MH-554               JUNCTION             21.35     20.10       0.0    Yes
  MH-555               JUNCTION             18.47     14.88       0.0    Yes
  MH-556               JUNCTION             18.29     12.96       0.0    Yes
  MH-557               JUNCTION             18.03     12.22       0.0    Yes
  MH-558               JUNCTION             17.77     12.38       0.0    Yes
  MH-559               JUNCTION             17.42     13.03       0.0    Yes
  MH-56                JUNCTION             47.63     19.37       0.0    Yes
  MH-560               JUNCTION             17.08     17.87       0.0    Yes
  MH-561               JUNCTION             16.65     17.40       0.0    Yes
  MH-562               JUNCTION             15.00     20.00       0.0    Yes
  MH-563               JUNCTION             13.01     19.94       0.0    Yes
  MH-564               JUNCTION             12.59     21.76       0.0    Yes
  MH-565               JUNCTION             12.00     20.95       0.0    Yes
  MH-5650              JUNCTION             40.98     16.77       0.0    Yes
  MH-566               JUNCTION             11.55     20.60       0.0    Yes
  MH-567               JUNCTION             11.49     20.26       0.0    Yes
  MH-568               JUNCTION             10.93     14.32       0.0    Yes
  MH-569               JUNCTION              9.11     10.89       0.0    Yes
  MH-57                JUNCTION             47.14     17.98       0.0    Yes
  MH-570               JUNCTION             10.42     16.53       0.0    Yes
  MH-571               JUNCTION             10.00     14.17       0.0    Yes
  MH-5715              JUNCTION            153.96     13.29       0.0    Yes
  MH-572               JUNCTION              9.67     16.88       0.0    Yes
  MH-573               JUNCTION              8.64     11.36       0.0    Yes
  MH-5739              JUNCTION             54.00     10.00       0.0    Yes
  MH-574               JUNCTION              8.23     11.77       0.0    Yes
  MH-575               JUNCTION              8.20      4.44       0.0    Yes
  MH-576               JUNCTION              7.93      4.00       0.0    Yes
  MH-577               JUNCTION              7.26      4.00       0.0    Yes
  MH-578               JUNCTION              2.43      3.35       0.0    Yes
  MH-579               JUNCTION              6.62      4.00       0.0    Yes
  MH-58                JUNCTION             46.46     16.30       0.0    Yes
  MH-580               JUNCTION              2.09      4.32       0.0    Yes
  MH-581               JUNCTION              2.02      4.22       0.0    Yes
  MH-582               JUNCTION             19.00      9.15       0.0    Yes
  MH-583               JUNCTION             19.18      8.77       0.0    Yes
  MH-584               JUNCTION             19.99      7.36       0.0    Yes
  MH-585               JUNCTION             20.50      6.85       0.0    Yes
  MH-586               JUNCTION             21.87      5.48       0.0    Yes
  MH-587               JUNCTION             22.79      5.36       0.0    Yes
  MH-588               JUNCTION             18.41     11.11       0.0    Yes
  MH-589               JUNCTION             17.88     17.04       0.0    Yes
  MH-59                JUNCTION             46.06     16.89       0.0    Yes
  MH-590               JUNCTION             17.34     15.56       0.0    Yes
  MH-591               JUNCTION             15.40     11.75       0.0    Yes
  MH-592               JUNCTION             14.98     11.57       0.0    Yes
  MH-593               JUNCTION             14.09     11.46       0.0    Yes
  MH-594               JUNCTION             13.37     11.18       0.0    Yes
  MH-595               JUNCTION             13.33     10.72       0.0    Yes
  MH-596               JUNCTION             13.21     10.84       0.0    Yes
  MH-597               JUNCTION             11.67      7.18       0.0    Yes
  MH-598               JUNCTION             10.19      9.46       0.0    Yes
  MH-599               JUNCTION              9.85     11.20       0.0    Yes
  MH-6                 JUNCTION             -0.89      8.00       0.0    Yes
  MH-60                JUNCTION             45.62     19.44       0.0    Yes
  MH-600               JUNCTION              9.55     12.48       0.0    Yes
  MH-6004              JUNCTION            134.15     12.70       0.0    Yes
  MH-6005              JUNCTION            138.05     11.10       0.0    Yes
  MH-6006              JUNCTION            142.65     16.20       0.0    Yes
  MH-6007              JUNCTION            141.65     12.70       0.0    Yes
  MH-6008              JUNCTION            144.25      4.80       0.0    Yes
  MH-6009              JUNCTION            133.15      9.00       0.0    Yes
  MH-601               JUNCTION              9.57     11.90       0.0
  MH-6010              JUNCTION            132.85      8.60       0.0    Yes
  MH-6011              JUNCTION            132.55      7.50       0.0    Yes
  MH-6012              JUNCTION            132.25      8.80       0.0    Yes
  MH-6013              JUNCTION            131.95      8.20       0.0    Yes
  MH-6014              JUNCTION            131.45      8.60       0.0    Yes
  MH-6015              JUNCTION            130.75     10.60       0.0    Yes
  MH-6016              JUNCTION            126.95     14.80       0.0    Yes
  MH-6017              JUNCTION            123.66     11.19       0.0    Yes
  MH-6018              JUNCTION            143.65     12.40       0.0    Yes
  MH-6019              JUNCTION            143.15     14.90       0.0    Yes
  MH-602               JUNCTION             27.34      8.65       0.0    Yes
  MH-6020              JUNCTION            143.95     11.50       0.0    Yes
  MH-6021              JUNCTION            148.45     13.00       0.0    Yes
  MH-6022              JUNCTION            144.95     12.60       0.0    Yes
  MH-606               JUNCTION             14.10      9.13       0.0
  MH-607               JUNCTION             14.23      8.15       0.0    Yes
  MH-608               JUNCTION             13.85      9.25       0.0    Yes
  MH-609               JUNCTION             13.26     12.15       0.0    Yes
  MH-610               JUNCTION             12.99     13.76       0.0    Yes
  MH-611               JUNCTION             13.00     13.00       0.0    Yes
  MH-6113              JUNCTION            120.87     14.30       0.0    Yes
  MH-6114              JUNCTION            120.34     12.05       0.0    Yes
  MH-6115              JUNCTION            119.31     17.07       0.0    Yes
  MH-6116              JUNCTION            116.67      7.80       0.0    Yes
  MH-6117              JUNCTION            115.56      8.75       0.0    Yes
  MH-6119              JUNCTION            122.32     18.24       0.0    Yes
  MH-612               JUNCTION             11.45     13.12       0.0    Yes
  MH-6120              JUNCTION            122.09     18.40       0.0    Yes
  MH-6121              JUNCTION            123.89     14.96       0.0    Yes
  MH-6122              JUNCTION            123.52     14.73       0.0    Yes
  MH-6123              JUNCTION            122.98     12.92       0.0    Yes
  MH-6124              JUNCTION            114.57      9.82       0.0    Yes
  MH-6125              JUNCTION            104.41      6.90       0.0    Yes
  MH-6126              JUNCTION            104.25      6.90       0.0    Yes
  MH-613               JUNCTION             11.05     11.24       0.0
  MH-614               JUNCTION            108.64      7.21       0.0    Yes
  MH-615               JUNCTION            107.29      8.26       0.0    Yes
  MH-616               JUNCTION            102.91      8.74       0.0    Yes
  MH-617               JUNCTION            102.17      8.68       0.0    Yes
  MH-618               JUNCTION            100.26      8.69       0.0    Yes
  MH-619               JUNCTION             98.13      9.32       0.0    Yes
  MH-62                JUNCTION             45.23     20.19       0.0    Yes
  MH-620               JUNCTION             94.83     10.02       0.0    Yes
  MH-621               JUNCTION             91.13      8.15       0.0    Yes
  MH-622               JUNCTION             84.61      8.46       0.0    Yes
  MH-623               JUNCTION             79.89      9.68       0.0    Yes
  MH-624               JUNCTION             61.84     28.07       0.0    Yes
  MH-625               JUNCTION             50.27     10.72       0.0    Yes
  MH-626               JUNCTION             38.27     12.48       0.0    Yes
  MH-627               JUNCTION             23.04     10.71       0.0    Yes
  MH-628               JUNCTION             18.98      9.27       0.0    Yes
  MH-632               JUNCTION             25.46      9.08       0.0    Yes
  MH-633               JUNCTION             25.42      8.14       0.0    Yes
  MH-634               JUNCTION             25.12      9.24       0.0    Yes
  MH-635               JUNCTION             24.89     25.11       0.0    Yes
  MH-636               JUNCTION             24.65     25.35       0.0    Yes
  MH-637               JUNCTION             23.31     19.24       0.0    Yes
  MH-638               JUNCTION             23.09     18.81       0.0    Yes
  MH-639               JUNCTION             22.92     18.48       0.0    Yes
  MH-64                JUNCTION             43.96     19.36       0.0    Yes
  MH-640               JUNCTION             22.57     24.08       0.0    Yes
  MH-641               JUNCTION             22.53     23.92       0.0    Yes
  MH-642               JUNCTION             22.50     23.62       0.0    Yes
  MH-643               JUNCTION             22.17     24.18       0.0    Yes
  MH-644               JUNCTION             22.33     11.32       0.0    Yes
  MH-645               JUNCTION             24.31     15.54       0.0    Yes
  MH-646               JUNCTION             25.69     16.38       0.0    Yes
  MH-647               JUNCTION             26.28     17.27       0.0    Yes
  MH-65                JUNCTION             43.70     19.35       0.0    Yes
  MH-6517              JUNCTION             41.00      9.00       0.0
  MH-657               JUNCTION             21.90     18.45       0.0    Yes
  MH-658               JUNCTION             21.65     16.88       0.0    Yes
  MH-6583              JUNCTION              1.55      6.66       0.0    Yes
  MH-6584              JUNCTION              4.33      2.18       0.0    Yes
  MH-6585              JUNCTION              4.11      2.67       0.0    Yes
  MH-6586              JUNCTION              3.77      4.34       0.0    Yes
  MH-6587              JUNCTION              3.94      3.58       0.0    Yes
  MH-6588              JUNCTION              2.72      3.87       0.0    Yes
  MH-6589              JUNCTION              2.76      4.03       0.0    Yes
  MH-659               JUNCTION             21.38     15.87       0.0    Yes
  MH-6590              JUNCTION              4.15      5.75       0.0    Yes
  MH-6591              JUNCTION              4.81      5.30       0.0    Yes
  MH-6592              JUNCTION              1.98      4.42       0.0    Yes
  MH-6593              JUNCTION              0.85      6.67       0.0
  MH-6594              JUNCTION              0.00      9.48       0.0    Yes
  MH-6596              JUNCTION              1.06      6.96       0.0
  MH-6597              JUNCTION              1.30      6.35       0.0    Yes
  MH-66                JUNCTION             43.00     18.93       0.0    Yes
  MH-6601              JUNCTION              0.00      8.14       0.0
  MH-6606              JUNCTION              4.00      7.32       0.0    Yes
  MH-6639              JUNCTION              4.39      3.51       0.0    Yes
  MH-664               JUNCTION             21.18     18.81       0.0    Yes
  MH-6641              JUNCTION              3.51      4.48       0.0    Yes
  MH-665               JUNCTION             21.03     15.72       0.0    Yes
  MH-666               JUNCTION             20.79     25.96       0.0    Yes
  MH-667               JUNCTION             20.52     26.23       0.0    Yes
  MH-6672              JUNCTION              9.80     10.00       0.0    Yes
  MH-6673              JUNCTION             11.43     10.00       0.0    Yes
  MH-6674              JUNCTION             10.40     10.00       0.0    Yes
  MH-6675              JUNCTION             10.20     10.00       0.0    Yes
  MH-6677              JUNCTION              7.92     10.00       0.0    Yes
  MH-6678              JUNCTION              8.74     10.00       0.0    Yes
  MH-668               JUNCTION             20.26     24.49       0.0    Yes
  MH-6681              JUNCTION              1.54      6.26       0.0
  MH-6687              JUNCTION              8.90     10.00       0.0    Yes
  MH-669               JUNCTION             20.20      9.80       0.0    Yes
  MH-67                JUNCTION             42.80     17.66       0.0    Yes
  MH-670               JUNCTION             19.80     10.20       0.0    Yes
  MH-6709              JUNCTION              3.17      6.12       0.0    Yes
  MH-671               JUNCTION             19.57     16.93       0.0    Yes
  MH-6710              JUNCTION              3.68      6.09       0.0    Yes
  MH-6712              JUNCTION              3.33      4.97       0.0    Yes
  MH-672               JUNCTION             19.34     15.75       0.0    Yes
  MH-6721              JUNCTION              6.71      2.00       0.0    Yes
  MH-6722              JUNCTION              6.19      1.78       0.0    Yes
  MH-6723              JUNCTION              5.93      2.00       0.0    Yes
  MH-6724              JUNCTION              5.69      2.00       0.0    Yes
  MH-6725              JUNCTION              5.00      2.50       0.0    Yes
  MH-6726              JUNCTION              4.93      2.50       0.0    Yes
  MH-6728              JUNCTION              6.42     10.00       0.0    Yes
  MH-6729              JUNCTION              4.68      2.85       0.0    Yes
  MH-673               JUNCTION             19.07     17.40       0.0    Yes
  MH-6735              JUNCTION              7.17     10.00       0.0    Yes
  MH-674               JUNCTION             18.91     18.14       0.0
  MH-6741              JUNCTION              5.67      7.00       0.0    Yes
  MH-6744              JUNCTION              3.79      3.74       0.0    Yes
  MH-6745              JUNCTION              3.29      4.27       0.0
  MH-6746              JUNCTION              2.50      5.99       0.0    Yes
  MH-6747              JUNCTION              2.70      5.34       0.0
  MH-6748              JUNCTION              3.01      5.64       0.0    Yes
  MH-675               JUNCTION             18.22     16.83       0.0
  MH-676               JUNCTION             18.50     17.55       0.0    Yes
  MH-677               JUNCTION             18.72     36.85       0.0
  MH-679               JUNCTION             24.91     11.50       0.0
  MH-68                JUNCTION             42.34     16.97       0.0    Yes
  MH-680               JUNCTION             22.68     11.86       0.0    Yes
  MH-681               JUNCTION             21.29     11.46       0.0    Yes
  MH-682               JUNCTION             16.71     13.23       0.0    Yes
  MH-683               JUNCTION             16.56     13.04       0.0    Yes
  MH-685               JUNCTION             15.98     12.58       0.0    Yes
  MH-686               JUNCTION             15.97     13.38       0.0    Yes
  MH-6862              JUNCTION              7.13     14.40       0.0    Yes
  MH-6863              JUNCTION              6.31      2.00       0.0    Yes
  MH-687               JUNCTION             15.90     14.08       0.0    Yes
  MH-6873              JUNCTION              3.00      3.89       0.0    Yes
  MH-6876              JUNCTION              3.96      2.58       0.0    Yes
  MH-688               JUNCTION             15.55     14.87       0.0    Yes
  MH-689               JUNCTION             15.31     14.25       0.0    Yes
  MH-690               JUNCTION             15.21     14.04       0.0    Yes
  MH-691               JUNCTION             15.08     13.50       0.0    Yes
  MH-6913              JUNCTION              6.62      2.00       0.0    Yes
  MH-6917              JUNCTION              6.87      2.16       0.0    Yes
  MH-692               JUNCTION             14.84     13.44       0.0    Yes
  MH-693               JUNCTION             14.60     13.71       0.0    Yes
  MH-694               JUNCTION             14.55     13.79       0.0
  MH-6940              JUNCTION              4.48      4.86       0.0    Yes
  MH-6941              JUNCTION              4.87      2.50       0.0    Yes
  MH-6942              JUNCTION              4.80      2.50       0.0    Yes
  MH-695               JUNCTION              9.25     14.60       0.0    Yes
  MH-6955              JUNCTION              5.12      2.50       0.0
  MH-696               JUNCTION              9.15     14.90       0.0
  MH-697               JUNCTION             13.81     13.70       0.0    Yes
  MH-698               JUNCTION             13.51     13.70       0.0    Yes
  MH-699               JUNCTION             13.10     14.50       0.0    Yes
  MH-7                 JUNCTION             -0.44     10.00       0.0    Yes
  MH-700               JUNCTION             12.68     15.10       0.0    Yes
  MH-701               JUNCTION             12.45     13.70       0.0    Yes
  MH-705               JUNCTION            103.19      3.69       0.0    Yes
  MH-706               JUNCTION            102.28      2.65       0.0    Yes
  MH-7061              JUNCTION             19.40      4.35       0.0    Yes
  MH-707               JUNCTION            101.67      4.00       0.0    Yes
  MH-7077              JUNCTION             34.60     15.40       0.0    Yes
  MH-7078              JUNCTION             34.84     15.16       0.0    Yes
  MH-7079              JUNCTION             42.85      7.15       0.0
  MH-708               JUNCTION             98.33      3.00       0.0    Yes
  MH-709               JUNCTION             95.43      5.00       0.0    Yes
  MH-71                JUNCTION             41.96     20.12       0.0    Yes
  MH-710               JUNCTION             94.01      6.12       0.0    Yes
  MH-711               JUNCTION             93.77      5.83       0.0    Yes
  MH-712               JUNCTION             83.23     10.00       0.0    Yes
  MH-713               JUNCTION             73.37     15.19       0.0    Yes
  MH-7134              JUNCTION             23.99     10.45       0.0    Yes
  MH-714               JUNCTION             72.54     10.29       0.0    Yes
  MH-715               JUNCTION             72.25      9.23       0.0    Yes
  MH-716               JUNCTION             73.77      7.71       0.0    Yes
  MH-7163              JUNCTION             37.16      7.59       0.0
  MH-7164              JUNCTION             37.72     12.28       0.0
  MH-7168              JUNCTION             38.17     11.83       0.0
  MH-7169              JUNCTION             38.26      7.95       0.0
  MH-717               JUNCTION             71.28     13.53       0.0    Yes
  MH-7173              JUNCTION             27.45     13.74       0.0    Yes
  MH-718               JUNCTION             66.67     13.53       0.0    Yes
  MH-7190              JUNCTION             10.50      9.50       0.0    Yes
  MH-7191              JUNCTION             12.00      8.00       0.0
  MH-7192              JUNCTION             11.60      8.40       0.0    Yes
  MH-7193              JUNCTION             11.30      8.70       0.0    Yes
  MH-7194              JUNCTION             11.40      8.50       0.0    Yes
  MH-7195              JUNCTION             11.50      8.45       0.0    Yes
  MH-7197              JUNCTION             35.59     18.89       0.0    Yes
  MH-72                JUNCTION             41.20     20.11       0.0    Yes
  MH-720               JUNCTION             65.69     12.28       0.0    Yes
  MH-721               JUNCTION             63.72     13.03       0.0    Yes
  MH-722               JUNCTION             63.65     13.14       0.0    Yes
  MH-723               JUNCTION             62.63     12.09       0.0    Yes
  MH-724               JUNCTION             62.50     12.53       0.0    Yes
  MH-725               JUNCTION             59.01     15.04       0.0    Yes
  MH-726               JUNCTION             65.15      2.24       0.0    Yes
  MH-727               JUNCTION              1.80     13.30       0.0    Yes
  MH-7272              JUNCTION              4.20     15.80       0.0    Yes
  MH-728               JUNCTION              1.95     11.50       0.0    Yes
  MH-729               JUNCTION              2.00     11.00       0.0    Yes
  MH-73                JUNCTION             43.56     20.00       0.0    Yes
  MH-730               JUNCTION              1.64     12.00       0.0    Yes
  MH-7306              JUNCTION              4.35     16.20       0.0    Yes
  MH-731               JUNCTION              1.11     10.08       0.0    Yes
  MH-732               JUNCTION              0.62     10.74       0.0    Yes
  MH-733               JUNCTION              1.01     10.30       0.0
  MH-7331              JUNCTION             10.75     15.20       0.0    Yes
  MH-734               JUNCTION              0.58     13.90       0.0    Yes
  MH-7359              JUNCTION              4.50     15.50       0.0    Yes
  MH-7360              JUNCTION              1.50      6.97       0.0    Yes
  MH-737               JUNCTION              0.33     15.42       0.0    Yes
  MH-738               JUNCTION              0.10     16.53       0.0    Yes
  MH-739               JUNCTION             -0.08     17.55       0.0    Yes
  MH-74                JUNCTION             56.50     15.00       0.0    Yes
  MH-740               JUNCTION             -0.12     17.53       0.0    Yes
  MH-741               JUNCTION             -0.24     16.99       0.0    Yes
  MH-742               JUNCTION             -0.39     17.34       0.0    Yes
  MH-743               JUNCTION             -0.55     17.70       0.0    Yes
  MH-7439              JUNCTION              2.30      5.31       0.0
  MH-744               JUNCTION             -0.60     17.70       0.0    Yes
  MH-7440              JUNCTION              2.10      7.35       0.0    Yes
  MH-745               JUNCTION             -0.74     16.29       0.0    Yes
  MH-746               JUNCTION             -2.72     20.07       0.0    Yes
  MH-7460              JUNCTION              9.83      9.24       0.0    Yes
  MH-747               JUNCTION             -2.74     19.99       0.0    Yes
  MH-748               JUNCTION             -2.88     20.00       0.0    Yes
  MH-75                JUNCTION             40.48     18.12       0.0    Yes
  MH-750               JUNCTION              1.20     17.21       0.0
  MH-751               JUNCTION             -3.00     20.00       0.0    Yes
  MH-752               JUNCTION             -3.10     18.80       0.0    Yes
  MH-753               JUNCTION             -3.20     20.00       0.0    Yes
  MH-755               JUNCTION              8.16     17.50       0.0    Yes
  MH-756               JUNCTION              7.61     17.55       0.0
  MH-757               JUNCTION              7.42     20.23       0.0    Yes
  MH-758               JUNCTION              6.87     20.08       0.0    Yes
  MH-759               JUNCTION              6.37     18.40       0.0    Yes
  MH-760               JUNCTION              5.38     20.40       0.0    Yes
  MH-761               JUNCTION              5.24     19.41       0.0    Yes
  MH-762               JUNCTION              5.23     18.50       0.0    Yes
  MH-763               JUNCTION              5.00     19.45       0.0    Yes
  MH-7687              JUNCTION              9.98     15.00       0.0    Yes
  MH-77                JUNCTION             38.33     16.05       0.0    Yes
  MH-770               JUNCTION              2.20     11.33       0.0    Yes
  MH-7715              JUNCTION             71.40     19.60       0.0    Yes
  MH-7733              JUNCTION              0.00      5.60       0.0    Yes
  MH-774               JUNCTION              0.60      6.07       0.0
  MH-775               JUNCTION              0.89      6.32       0.0    Yes
  MH-776               JUNCTION              1.35      5.43       0.0
  MH-777               JUNCTION              0.40      5.37       0.0
  MH-778               JUNCTION              1.53     15.72       0.0
  MH-7782              JUNCTION             79.00     10.89       0.0    Yes
  MH-7784              JUNCTION             78.90      9.92       0.0    Yes
  MH-7789              JUNCTION             17.84      3.61       0.0
  MH-779               JUNCTION              1.60     16.75       0.0    Yes
  MH-7790              JUNCTION             16.99      5.46       0.0    Yes
  MH-7791              JUNCTION             16.38      8.77       0.0    Yes
  MH-7799              JUNCTION             14.00     11.00       0.0    Yes
  MH-78                JUNCTION             37.19     17.12       0.0    Yes
[...]
  885                     3.06   0.00  0.00  0.00  1.00  0.00  0.00  0.00  0.02  0.00
  886                     1.00   0.00  0.00  0.00  1.00  0.00  0.00  0.00  0.16  0.00
  887                     1.00   0.00  0.00  0.00  1.00  0.00  0.00  0.00  0.00  0.00
  888                     1.00   0.00  0.00  0.00  1.00  0.00  0.00  0.00  0.01  0.00
  889                     1.00   0.00  0.00  0.00  1.00  0.00  0.00  0.00  1.00  0.00
  89                      1.00   0.00  0.00  0.00  1.00  0.00  0.00  0.00  0.00  0.00
  890                     1.00   0.00  0.00  0.00  1.00  0.00  0.00  0.00  0.01  0.00
  891                     1.00   0.00  0.00  0.00  1.00  0.00  0.00  0.00  0.01  0.00
  892                     1.00   0.00  0.00  0.00  1.00  0.00  0.00  0.00  0.00  0.00
  893                     4.48   0.00  0.00  0.00  1.00  0.00  0.00  0.00  0.02  0.00
  894                     1.00   0.00  0.00  0.00  1.00  0.00  0.00  0.00  0.99  0.00
  895                     1.00   0.00  0.00  0.00  0.17  0.83  0.00  0.00  0.00  0.00
  896                     1.00   0.00  0.00  0.00  1.00  0.00  0.00  0.00  1.00  0.00
  897                     1.48   0.00  0.00  0.00  1.00  0.00  0.00  0.00  0.00  0.00
  898                     1.00   0.00  0.00  0.00  1.00  0.00  0.00  0.00  1.00  0.00
  899                     1.00   0.00  0.00  0.00  0.93  0.07  0.00  0.00  0.00  0.00
  9                       1.00   0.00  0.00  0.00  1.00  0.00  0.00  0.00  0.00  0.00
  90                      1.00   0.00  0.00  0.00  1.00  0.00  0.00  0.00  1.00  0.00
  900                     1.14   0.00  0.00  0.00  0.00  1.00  0.00  0.00  1.00  0.00
  901                     1.00   0.00  0.00  0.00  0.96  0.04  0.00  0.00  1.00  0.00
  902                     1.00   0.00  0.00  0.00  0.98  0.02  0.00  0.00  0.02  0.00
  903                     1.00   0.00  0.00  0.00  1.00  0.00  0.00  0.00  0.00  0.00
  904                     3.32   0.00  0.00  0.00  1.00  0.00  0.00  0.00  1.00  0.00
  905                     1.00   0.00  0.00  0.00  0.00  1.00  0.00  0.00  0.00  0.00
  906                     5.72   0.00  0.00  0.00  0.99  0.01  0.00  0.00  1.00  0.00
  907                     1.00   0.00  0.00  0.00  1.00  0.00  0.00  0.00  0.87  0.00
  908                     1.00   0.00  0.00  0.00  1.00  0.00  0.00  0.00  0.92  0.00
  909                     1.00   0.00  0.00  0.00  1.00  0.00  0.00  0.00  0.98  0.00
  91                      1.00   0.00  0.00  0.00  1.00  0.00  0.00  0.00  0.01  0.00
  910                     2.24   0.00  0.00  0.00  1.00  0.00  0.00  0.00  0.02  0.00
  911                     1.00   0.00  0.00  0.00  0.00  1.00  0.00  0.00  1.00  0.00
  912                     1.00   0.00  0.00  0.00  0.26  0.74  0.00  0.00  1.00  0.00
  913                     1.00   0.00  0.00  0.00  1.00  0.00  0.00  0.00  0.99  0.00
  914                     1.00   0.00  0.00  0.00  1.00  0.00  0.00  0.00  1.00  0.00
  915                     1.28   0.00  0.00  0.00  0.03  0.97  0.00  0.00  1.00  0.00
  916                     2.39   0.00  0.00  0.00  1.00  0.00  0.00  0.00  0.03  0.00
  917                     1.00   0.00  0.00  0.00  1.00  0.00  0.00  0.00  1.00  0.00
  918                     1.00   0.00  0.00  0.00  1.00  0.00  0.00  0.00  1.00  0.00
  919                     1.00   0.00  0.00  0.00  1.00  0.00  0.00  0.00  0.03  0.00
  92                      1.00   0.00  0.00  0.00  1.00  0.00  0.00  0.00  0.00  0.00
  920                     1.96   0.20  0.12  0.00  0.62  0.06  0.00  0.00  0.80  0.00
  921                     2.83   0.00  0.00  0.00  0.98  0.02  0.00  0.00  1.00  0.00
  922                     1.12   0.00  0.00  0.00  0.00  1.00  0.00  0.00  1.00  0.00
  923                     1.00   0.00  0.00  0.00  1.00  0.00  0.00  0.00  0.00  0.00
  924                     1.00   0.00  0.00  0.00  1.00  0.00  0.00  0.00  0.00  0.00
  925                     1.00   0.00  0.00  0.00  1.00  0.00  0.00  0.00  0.03  0.00
  926                     1.00   0.00  0.00  0.00  0.02  0.98  0.00  0.00  0.00  0.00
  927                     1.05   0.00  0.00  0.00  0.00  1.00  0.00  0.00  0.00  0.00
  928                     1.50   0.00  0.00  0.00  0.00  1.00  0.00  0.00  1.00  0.00
  929                     1.00   0.00  0.00  0.00  0.02  0.98  0.00  0.00  1.00  0.00
  93                      1.00   0.00  0.00  0.00  1.00  0.00  0.00  0.00  0.00  0.00
  930                     1.00   0.00  0.00  0.00  0.98  0.02  0.00  0.00  0.89  0.00
  931                     1.00   0.00  0.00  0.00  0.99  0.01  0.00  0.00  0.99  0.00
  932                     3.76   0.00  0.00  0.00  1.00  0.00  0.00  0.00  0.00  0.00
  933                     1.17   0.00  0.00  0.00  1.00  0.00  0.00  0.00  0.00  0.00
  934                     1.00   0.00  0.00  0.00  1.00  0.00  0.00  0.00  1.00  0.00
  935                     1.00   0.00  0.00  0.00  0.76  0.24  0.00  0.00  0.00  0.00
  936                     4.31   0.00  0.00  0.00  0.94  0.06  0.00  0.00  1.00  0.00
  937                     1.00   0.00  0.00  0.00  1.00  0.00  0.00  0.00  0.00  0.00
  938                     1.00   0.00  0.00  0.00  0.01  0.99  0.00  0.00  0.35  0.00
  939                     1.00   0.00  0.00  0.00  0.00  1.00  0.00  0.00  0.00  0.00
  94                      1.00   0.00  0.00  0.00  1.00  0.00  0.00  0.00  0.00  0.00
  940                     1.00   0.00  0.00  0.00  0.97  0.03  0.00  0.00  1.00  0.00
  941                     1.00   0.00  0.00  0.00  1.00  0.00  0.00  0.00  0.03  0.00
  942                     1.00   0.00  0.00  0.00  0.99  0.01  0.00  0.00  0.00  0.00
  943                     1.00   0.00  0.00  0.00  1.00  0.00  0.00  0.00  0.00  0.00
  944                     1.00   0.00  0.00  0.00  0.01  0.99  0.00  0.00  0.00  0.00
  945                     1.98   0.00  0.00  0.00  0.65  0.35  0.00  0.00  0.01  0.00
  946                     1.00   0.00  0.00  0.00  1.00  0.00  0.00  0.00  0.00  0.00
  947                     1.00   0.00  0.00  0.00  1.00  0.00  0.00  0.00  1.00  0.00
  948                     1.00   0.00  0.00  0.00  1.00  0.00  0.00  0.00  0.07  0.00
  949                     1.00   0.00  0.00  0.00  1.00  0.00  0.00  0.00  0.00  0.00
  95                      1.08   0.00  0.00  0.00  1.00  0.00  0.00  0.00  1.00  0.00
  950                     1.00   0.00  0.00  0.00  1.00  0.00  0.00  0.00  0.00  0.00
  951                     1.00   0.00  0.00  0.00  1.00  0.00  0.00  0.00  0.24  0.00
  952                     1.32   0.00  0.00  0.00  1.00  0.00  0.00  0.00  0.00  0.00
  953                     1.00   0.00  0.00  0.00  1.00  0.00  0.00  0.00  0.00  0.00
  954                     1.00   0.00  0.00  0.00  1.00  0.00  0.00  0.00  1.00  0.00
  955                     1.00   0.00  0.00  0.00  0.14  0.86  0.00  0.00  0.00  0.00
  956                     1.00   0.00  0.00  0.00  0.01  0.99  0.00  0.00  0.01  0.00
  957                     1.00   0.00  0.00  0.00  1.00  0.00  0.00  0.00  0.00  0.00
  958                     1.00   0.00  0.00  0.00  1.00  0.00  0.00  0.00  0.00  0.00
  959                     1.00   0.00  0.00  0.00  1.00  0.00  0.00  0.00  0.00  0.00
  96                      4.28   0.00  0.00  0.00  0.99  0.01  0.00  0.00  1.00  0.00
  960                     1.00   0.00  0.00  0.00  1.00  0.00  0.00  0.00  1.00  0.00
  961                     1.00   0.00  0.00  0.00  1.00  0.00  0.00  0.00  0.99  0.00
  962                     1.00   0.00  0.00  0.00  1.00  0.00  0.00  0.00  1.00  0.00
  963                     1.00   0.00  0.00  0.00  1.00  0.00  0.00  0.00  1.00  0.00
  964                     1.00   0.00  0.00  0.00  1.00  0.00  0.00  0.00  0.01  0.00
  965                     1.00   0.00  0.00  0.00  1.00  0.00  0.00  0.00  0.95  0.00
  966                     1.00   0.00  0.00  0.00  1.00  0.00  0.00  0.00  0.01  0.00
  967                     1.37   0.00  0.00  0.00  1.00  0.00  0.00  0.00  0.01  0.00
  968                     1.00   0.00  0.00  0.00  1.00  0.00  0.00  0.00  0.01  0.00
  969                     1.00   0.00  0.00  0.00  1.00  0.00  0.00  0.00  1.00  0.00
  97                      1.00   0.00  0.00  0.00  1.00  0.00  0.00  0.00  0.00  0.00
  970                     1.00   0.00  0.00  0.00  1.00  0.00  0.00  0.00  0.02  0.00
  971                     1.00   0.00  0.00  0.00  1.00  0.00  0.00  0.00  0.02  0.00
  972                     1.00   0.00  0.00  0.00  1.00  0.00  0.00  0.00  0.96  0.00
  973                     1.00   0.00  0.00  0.00  1.00  0.00  0.00  0.00  1.00  0.00
  974                     1.00   0.00  0.00  0.00  1.00  0.00  0.00  0.00  0.00  0.00
  975                     1.00   0.00  0.00  0.00  1.00  0.00  0.00  0.00  0.01  0.00
  976                     1.00   0.00  0.00  0.00  1.00  0.00  0.00  0.00  0.00  0.00
  977                     1.00   0.00  0.00  0.00  1.00  0.00  0.00  0.00  1.00  0.00
  978                     1.00   0.00  0.00  0.00  1.00  0.00  0.00  0.00  0.00  0.00
  979                     1.00   0.00  0.00  0.00  1.00  0.00  0.00  0.00  0.01  0.00
  98                      1.00   0.00  0.00  0.00  0.98  0.00  0.00  0.02  0.00  0.00
  980                     1.41   0.00  0.00  0.00  1.00  0.00  0.00  0.00  1.00  0.00
  981                     1.00   0.00  0.00  0.00  0.00  1.00  0.00  0.00  1.00  0.00
  982                     1.00   0.00  0.00  0.00  0.00  1.00  0.00  0.00  0.00  0.00
  983                     1.48   0.00  0.00  0.00  0.00  1.00  0.00  0.00  1.00  0.00
  984                     1.00   0.00  0.00  0.00  1.00  0.00  0.00  0.00  0.02  0.00
  985                     1.00   0.00  0.00  0.00  1.00  0.00  0.00  0.00  1.00  0.00
  986                     1.00   0.00  0.00  0.00  1.00  0.00  0.00  0.00  0.02  0.00
  987                     1.00   0.00  0.00  0.00  0.02  0.98  0.00  0.00  0.02  0.00
  988                     3.83   0.00  0.00  0.00  1.00  0.00  0.00  0.00  0.00  0.00
  989                     1.00   0.00  0.00  0.00  1.00  0.00  0.00  0.00  1.00  0.00
  99                      1.00   0.01  0.00  0.00  0.99  0.00  0.00  0.00  0.99  0.00
  990                     1.00   0.00  0.00  0.00  1.00  0.00  0.00  0.00  0.01  0.00
  991                     1.00   0.00  0.00  0.00  1.00  0.00  0.00  0.00  0.02  0.00
  992                     1.00   0.00  0.00  0.00  1.00  0.00  0.00  0.00  0.00  0.00
  993                     1.00   0.00  0.00  0.00  1.00  0.00  0.00  0.00  0.02  0.00
  994                     1.00   0.00  0.00  0.00  1.00  0.00  0.00  0.00  1.00  0.00
  995                     1.00   0.00  0.00  0.00  1.00  0.00  0.00  0.00  0.01  0.00
  996                     1.00   0.00  0.00  0.00  0.03  0.97  0.00  0.00  0.03  0.00
  997                     1.00   0.00  0.00  0.00  1.00  0.00  0.00  0.00  0.00  0.00
  998                     1.00   0.00  0.00  0.00  1.00  0.00  0.00  0.00  0.99  0.00
  999                     1.00   0.00  0.00  0.00  1.00  0.00  0.00  0.00  0.00  0.00
  C1                      1.00   0.00  0.00  0.00  1.00  0.00  0.00  0.00  0.09  0.00
  C10                     1.00   0.00  0.00  0.00  1.00  0.00  0.00  0.00  1.00  0.00
  C11                     1.00   0.00  0.00  0.00  0.98  0.02  0.00  0.00  1.00  0.00
  C12                     1.00   0.00  0.00  0.00  1.00  0.00  0.00  0.00  0.00  0.00
  C13                     1.23   0.00  0.00  0.00  0.00  1.00  0.00  0.00  0.00  0.00
  C14                     1.00   0.00  0.00  0.00  1.00  0.00  0.00  0.00  1.00  0.00
  C15                     1.00   0.10  0.00  0.00  0.00  0.90  0.00  0.00  0.38  0.00
  C2                      3.71   0.00  0.00  0.00  0.00  1.00  0.00  0.00  0.97  0.00
  C3                      1.00   0.00  0.00  0.00  1.00  0.00  0.00  0.00  1.00  0.00
  C4                      1.00   0.00  0.00  0.00  1.00  0.00  0.00  0.00  1.00  0.00
  C5                      1.00   0.00  0.00  0.00  1.00  0.00  0.00  0.00  0.97  0.00
  C6                      1.00   0.00  0.00  0.00  1.00  0.00  0.00  0.00  0.00  0.00
  C7                      1.00   0.00  0.00  0.00  1.00  0.00  0.00  0.00  1.00  0.00
  C8                      1.00   0.00  0.00  0.00  1.00  0.00  0.00  0.00  1.00  0.00
  C9                      1.00   0.00  0.00  0.00  0.00  1.00  0.00  0.00  0.00  0.00
  
  
  *************************
  Conduit Surcharge Summary
  *************************
  
  ----------------------------------------------------------------------------
                                                           Hours        Hours 
                         --------- Hours Full --------   Above Full   Capacity
  Conduit                Both Ends  Upstream  Dnstream   Normal Flow   Limited
  ----------------------------------------------------------------------------
  1005                        0.35      0.35     52.31      0.01         0.01
  101                         0.01      0.01      0.01     51.38         0.01
  1013                        0.01      0.01     52.18      0.01         0.01
  1018                       50.39     50.39     50.69      0.01         0.01
  1019                        0.01      0.01     50.69      0.01         0.01
  1036                        0.01      0.01     51.97      0.01         0.01
  1037                        0.01      0.01     52.18      0.01         0.01
  1038                       52.18     52.18     52.56      0.01         0.01
  1055                        0.01      0.01     52.27      0.01         0.01
  1057                        0.01      0.01      0.01     35.06         0.01
  1061                        0.01      0.01      0.01      2.03         0.01
  1062                        0.01      0.01      0.01     34.24         0.01
  1071                        0.01      0.01     49.93      0.01         0.01
  1072                        0.01      0.01     49.82      0.01         0.01
  1073                        0.01      0.01      0.01     52.46         0.01
  1077                        0.01      0.01      0.41      0.01         0.01
  1078                        0.41      0.41      1.83      0.01         0.01
  1079                        0.01      1.83      0.01     34.57         0.01
  1081                        0.01      0.01      0.01      0.16         0.01
  1084                        0.01      0.01      1.84      0.01         0.01
  1118                        0.01      0.01     51.41      0.01         0.01
  1121                        0.01      0.01     44.20      0.01         0.01
  1122                       44.20     44.20     52.91     13.00        13.38
  1123                        0.01      0.01     52.91      6.53         0.01
  1124                        0.01      0.01     36.35      0.01         0.01
  1126                        0.01      0.01     14.23      0.01         0.01
  1141                        1.94      1.94     52.59      0.01         0.01
  1142                       24.24     24.24     52.72      0.01         0.01
  126                         0.01      0.01     52.18      0.01         0.01
  145                         0.01      0.01      0.01     12.15         0.01
  181                         0.01      0.01      0.01     36.82         0.01
  204                         0.01      0.01      0.01      6.66         0.01
  262                         0.01      0.01     51.78      0.01         0.01
  265                         0.01      0.01     52.17      0.01         0.01
  266                         0.01      0.01     51.16      0.01         0.01
  270                         0.01      0.01     52.11      0.01         0.01
  325                         0.01      0.01      0.01     25.51         0.01
  334                         0.01      0.01     51.78      0.01         0.01
  375                         0.01      0.01      0.06      0.01         0.01
  376                         0.01      0.01      0.06      0.01         0.01
  424                         0.01      0.01      0.01      1.54         0.01
  436                         0.01      0.01      0.01     42.35         0.01
  631                         0.01      0.01     51.96      0.01         0.01
  64                          0.01      0.01      3.84      0.01         0.01
  643                         0.01      0.01      2.53      0.01         0.01
  644                         2.53      2.53      4.64      0.01         0.01
  645                         4.64      4.64     20.15      0.01         0.01
  65                          3.84      3.84     51.16      0.01         0.01
  651                         0.01      0.01     52.06      0.01         0.01
  651-2                       0.01      0.01     52.40      0.01         0.01
  70                          0.01      0.01     52.17      0.01         0.01
  725                         0.01      0.01      0.01     49.95         0.01
  734                         0.01      0.01     52.10      0.01         0.01
  735                        20.15     20.15     23.46      0.01         0.11
  738                         0.01      0.01     52.06      0.01         0.01
  738-2                       0.01      0.01     52.40      0.01         0.01
  739                        52.06     52.06     52.06      5.10        16.18
  739-2                      52.40     52.40     52.40      5.11        16.18
  74                          0.01      0.01     52.34      0.01         0.01
  75                          0.01      0.01     52.34      0.01         0.01
  759                         0.01      0.01      4.18      0.01         0.01
  890                         4.57      4.57     49.76      0.01         0.01
  891                        49.76     49.76     50.13      0.01         0.01
  892                        50.13     50.13     50.39      0.01         0.01
  893                         0.01      0.01     51.85      0.01         0.01
  903                        52.10     52.10     52.11      0.01         0.01
  910                         0.01      0.01     51.85      0.01         0.01
  916                         0.01      0.01     52.33      0.01         0.01
  941                         0.01      0.01     51.37      0.01         0.01
  942                        51.37     51.37     51.76      0.01         0.01
  966                        52.31     52.31     52.71      0.01         0.01
  967                        52.54     52.54     52.71      0.01         0.01
  968                         0.01      0.01     52.54      0.01         0.01
  970                         0.01      0.01     51.88      0.01         0.01
  976                         0.01      0.01      0.35      0.01         0.01
  984                         0.01      0.01     52.56      0.01         0.01
  985                         0.01      0.01     51.88      0.01         0.01
  992                         0.01      0.01      4.57      0.01         0.01
  995                        51.76     51.76     52.33      0.01         0.01
  C10                         0.01      0.01     48.88      0.01         0.01
  
  
  ***************
  Pumping Summary
  ***************
  
  ---------------------------------------------------------------------------------------------------------
                                                  Min       Avg       Max     Total     Power    % Time Off
                        Percent   Number of      Flow      Flow      Flow    Volume     Usage    Pump Curve
  Pump                 Utilized   Start-Ups       MGD       MGD       MGD  10^6 gal     Kw-hr    Low   High
  ---------------------------------------------------------------------------------------------------------
  AlvordLane             100.00           1      0.00      1.24      3.76     2.697    698.41    0.0    0.0
  Cove                   100.00           1      0.00      3.10      4.11     6.516    876.15    0.0    0.0
  GreenwichAve           100.00           1      0.00      0.68      0.87     1.441     82.03    0.0    0.0
  

  Analysis begun on:  Sun Jul 19 12:50:39 2026
  Analysis ended on:  Sun Jul 19 12:51:55 2026
  Total elapsed time: 00:01:16